CID_14505-2-Furyl methyl ketone
     RDKit          3D

 14 14  0  0  0  0  0  0  0  0999 V2000
   -1.6456    0.5337    0.5100 C   0  0  0  0  0  0  0  0  0  0  0  0
   -0.5589   -0.5020    0.6707 C   0  0  0  0  0  0  0  0  0  0  0  0
   -0.8406   -1.6224    1.0971 O   0  0  0  0  0  0  0  0  0  0  0  0
    0.7813   -0.0899    0.2995 C   0  0  0  0  0  0  0  0  0  0  0  0
    1.2984    1.0974   -0.1902 C   0  0  0  0  0  0  0  0  0  0  0  0
    2.6904    0.8987   -0.3645 C   0  0  0  0  0  0  0  0  0  0  0  0
    2.9426   -0.3933    0.0272 C   0  0  0  0  0  0  0  0  0  0  0  0
    1.7978   -0.9987    0.4296 O   0  0  0  0  0  0  0  0  0  0  0  0
   -2.6050    0.1082    0.8196 H   0  0  0  0  0  0  0  0  0  0  0  0
   -1.4337    1.4016    1.1404 H   0  0  0  0  0  0  0  0  0  0  0  0
   -1.7246    0.8360   -0.5379 H   0  0  0  0  0  0  0  0  0  0  0  0
    0.7427    2.0012   -0.3985 H   0  0  0  0  0  0  0  0  0  0  0  0
    3.4200    1.6079   -0.7300 H   0  0  0  0  0  0  0  0  0  0  0  0
    3.8347   -1.0025    0.0779 H   0  0  0  0  0  0  0  0  0  0  0  0
  1  2  1  0
  2  3  2  0
  2  4  1  0
  4  5  2  0
  5  6  1  0
  6  7  2  0
  7  8  1  0
  8  4  1  0
  1  9  1  0
  1 10  1  0
  1 11  1  0
  5 12  1  0
  6 13  1  0
  7 14  1  0
M  END
>  <cat1>  (1) 
0

$$$$
b_CID_3806-5-Hydroxy-1-4-naphthoquinone
     RDKit          3D

 19 20  0  0  0  0  0  0  0  0999 V2000
    1.1737   -0.1806   -2.4069 C   0  0  0  0  0  0  0  0  0  0  0  0
    1.6688    0.3310   -1.2066 C   0  0  0  0  0  0  0  0  0  0  0  0
    0.8481    0.3727   -0.0711 C   0  0  0  0  0  0  0  0  0  0  0  0
   -0.4653   -0.0967   -0.1365 C   0  0  0  0  0  0  0  0  0  0  0  0
   -1.3243   -0.0507    1.0606 C   0  0  0  0  0  0  0  0  0  0  0  0
   -2.4804   -0.4583    1.0227 O   0  0  0  0  0  0  0  0  0  0  0  0
   -0.7603    0.4978    2.3072 C   0  0  0  0  0  0  0  0  0  0  0  0
    0.4956    0.9458    2.3668 C   0  0  0  0  0  0  0  0  0  0  0  0
    1.3875    0.9172    1.1912 C   0  0  0  0  0  0  0  0  0  0  0  0
    2.5342    1.3356    1.2785 O   0  0  0  0  0  0  0  0  0  0  0  0
   -0.9529   -0.6084   -1.3458 C   0  0  0  0  0  0  0  0  0  0  0  0
   -0.1378   -0.6503   -2.4754 C   0  0  0  0  0  0  0  0  0  0  0  0
   -2.2259   -1.0886   -1.4978 O   0  0  0  0  0  0  0  0  0  0  0  0
    1.8093   -0.2137   -3.2891 H   0  0  0  0  0  0  0  0  0  0  0  0
    2.6937    0.6962   -1.1595 H   0  0  0  0  0  0  0  0  0  0  0  0
   -1.4177    0.5175    3.1689 H   0  0  0  0  0  0  0  0  0  0  0  0
    0.9176    1.3505    3.2797 H   0  0  0  0  0  0  0  0  0  0  0  0
   -0.5270   -1.0497   -3.4092 H   0  0  0  0  0  0  0  0  0  0  0  0
   -2.6969   -1.0054   -0.6379 H   0  0  0  0  0  0  0  0  0  0  0  0
  1  2  2  0
  2  3  1  0
  3  4  2  0
  4  5  1  0
  5  6  2  0
  5  7  1  0
  7  8  2  0
  8  9  1  0
  9 10  2  0
  4 11  1  0
 11 12  2  0
 11 13  1  0
 12  1  1  0
  9  3  1  0
  1 14  1  0
  2 15  1  0
  7 16  1  0
  8 17  1  0
 12 18  1  0
 13 19  1  0
M  END
>  <cat1>  (2) 
1

$$$$
b_CID_667490-Mercaptopurine
     RDKit          3D

 14 15  0  0  0  0  0  0  0  0999 V2000
    0.1017   -0.6091   -1.8181 C   0  0  0  0  0  0  0  0  0  0  0  0
    0.3271    0.6837   -1.6881 N   0  0  0  0  0  0  0  0  0  0  0  0
    0.5992    0.8336   -0.3714 C   0  0  0  0  0  0  0  0  0  0  0  0
    0.5482   -0.3415    0.3245 C   0  0  0  0  0  0  0  0  0  0  0  0
    0.2240   -1.2748   -0.6235 N   0  0  0  0  0  0  0  0  0  0  0  0
    0.8015   -0.4235    1.7323 C   0  0  0  0  0  0  0  0  0  0  0  0
    0.7158   -1.9065    2.4982 S   0  0  0  0  0  0  0  0  0  0  0  0
    1.1029    0.7867    2.3320 N   0  0  0  0  0  0  0  0  0  0  0  0
    1.1292    1.8547    1.5937 C   0  0  0  0  0  0  0  0  0  0  0  0
    0.8937    1.9748    0.2489 N   0  0  0  0  0  0  0  0  0  0  0  0
   -0.1516   -1.1192   -2.7386 H   0  0  0  0  0  0  0  0  0  0  0  0
    0.0994   -2.2669   -0.4673 H   0  0  0  0  0  0  0  0  0  0  0  0
    1.3686    2.8236    2.0639 H   0  0  0  0  0  0  0  0  0  0  0  0
    0.9398    2.8604   -0.2355 H   0  0  0  0  0  0  0  0  0  0  0  0
  1  2  2  0
  2  3  1  0
  3  4  2  0
  4  5  1  0
  4  6  1  0
  6  7  2  0
  6  8  1  0
  8  9  2  0
  9 10  1  0
  5  1  1  0
 10  3  1  0
  1 11  1  0
  5 12  1  0
  9 13  1  0
 10 14  1  0
M  END
>  <cat1>  (3) 
1

$$$$
CID_2662-Celecoxib
     RDKit          3D

 40 42  0  0  0  0  0  0  0  0999 V2000
   -1.1951    2.7914    4.1028 C   0  0  0  0  0  0  0  0  0  0  0  0
   -0.4061    1.9787    3.1189 C   0  0  0  0  0  0  0  0  0  0  0  0
   -0.5061    0.5827    3.1112 C   0  0  0  0  0  0  0  0  0  0  0  0
    0.2044   -0.1731    2.1753 C   0  0  0  0  0  0  0  0  0  0  0  0
    1.0085    0.4588    1.2193 C   0  0  0  0  0  0  0  0  0  0  0  0
    1.1116    1.8543    1.2278 C   0  0  0  0  0  0  0  0  0  0  0  0
    0.4001    2.6090    2.1641 C   0  0  0  0  0  0  0  0  0  0  0  0
    1.7639   -0.3275    0.2494 C   0  0  0  0  0  0  0  0  0  0  0  0
    3.1396   -0.4522    0.1844 C   0  0  0  0  0  0  0  0  0  0  0  0
    3.4037   -1.4373   -0.7893 C   0  0  0  0  0  0  0  0  0  0  0  0
    2.2581   -1.9010   -1.3137 N   0  0  0  0  0  0  0  0  0  0  0  0
    1.2580   -1.1647   -0.7468 N   0  0  0  0  0  0  0  0  0  0  0  0
   -0.0771   -1.3374   -1.2380 C   0  0  0  0  0  0  0  0  0  0  0  0
   -1.1080   -0.4322   -0.9514 C   0  0  0  0  0  0  0  0  0  0  0  0
   -2.3976   -0.6408   -1.4558 C   0  0  0  0  0  0  0  0  0  0  0  0
   -2.6612   -1.7554   -2.2535 C   0  0  0  0  0  0  0  0  0  0  0  0
   -1.6411   -2.6492   -2.5774 C   0  0  0  0  0  0  0  0  0  0  0  0
   -0.3550   -2.4385   -2.0716 C   0  0  0  0  0  0  0  0  0  0  0  0
   -4.2823   -1.9983   -2.9163 S   0  0  0  0  0  0  0  0  0  0  0  0
   -4.1933   -2.8013   -4.1131 O   0  0  0  0  0  0  0  0  0  0  0  0
   -5.0070   -0.7497   -2.8726 O   0  0  0  0  0  0  0  0  0  0  0  0
   -4.9884   -2.9804   -1.7519 N   0  0  0  0  0  0  0  0  0  0  0  0
    4.7553   -1.9587   -1.1972 C   0  0  0  0  0  0  0  0  0  0  0  0
    4.9050   -3.2826   -0.9273 F   0  0  0  0  0  0  0  0  0  0  0  0
    5.7619   -1.3179   -0.5390 F   0  0  0  0  0  0  0  0  0  0  0  0
    4.9997   -1.7909   -2.5238 F   0  0  0  0  0  0  0  0  0  0  0  0
   -0.6734    3.7226    4.3476 H   0  0  0  0  0  0  0  0  0  0  0  0
   -1.3352    2.2422    5.0398 H   0  0  0  0  0  0  0  0  0  0  0  0
   -2.1767    3.0347    3.6848 H   0  0  0  0  0  0  0  0  0  0  0  0
   -1.1345    0.0731    3.8386 H   0  0  0  0  0  0  0  0  0  0  0  0
    0.1229   -1.2578    2.1995 H   0  0  0  0  0  0  0  0  0  0  0  0
    1.7373    2.3661    0.4999 H   0  0  0  0  0  0  0  0  0  0  0  0
    0.4826    3.6938    2.1452 H   0  0  0  0  0  0  0  0  0  0  0  0
    3.8609    0.0636    0.8057 H   0  0  0  0  0  0  0  0  0  0  0  0
   -0.9482    0.4705   -0.3726 H   0  0  0  0  0  0  0  0  0  0  0  0
   -3.1832    0.0776   -1.2291 H   0  0  0  0  0  0  0  0  0  0  0  0
   -1.8323   -3.5061   -3.2198 H   0  0  0  0  0  0  0  0  0  0  0  0
    0.4246   -3.1530   -2.3344 H   0  0  0  0  0  0  0  0  0  0  0  0
   -5.7818   -2.4980   -1.3290 H   0  0  0  0  0  0  0  0  0  0  0  0
   -5.2270   -3.8838   -2.1619 H   0  0  0  0  0  0  0  0  0  0  0  0
  1  2  1  0
  2  3  2  0
  3  4  1  0
  4  5  2  0
  5  6  1  0
  6  7  2  0
  5  8  1  0
  8  9  2  0
  9 10  1  0
 10 11  2  0
 11 12  1  0
 12 13  1  0
 13 14  2  0
 14 15  1  0
 15 16  2  0
 16 17  1  0
 17 18  2  0
 16 19  1  0
 19 20  2  0
 19 21  2  0
 19 22  1  0
 10 23  1  0
 23 24  1  0
 23 25  1  0
 23 26  1  0
  7  2  1  0
 12  8  1  0
 18 13  1  0
  1 27  1  0
  1 28  1  0
  1 29  1  0
  3 30  1  0
  4 31  1  0
  6 32  1  0
  7 33  1  0
  9 34  1  0
 14 35  1  0
 15 36  1  0
 17 37  1  0
 18 38  1  0
 22 39  1  0
 22 40  1  0
M  END
>  <cat1>  (4) 
0

$$$$
b_CID_10637-1-2-Naphthoquinone-4-sulfonic acid
     RDKit          3D

 22 23  0  0  0  0  0  0  0  0999 V2000
   -2.3455   -1.3332    0.4870 C   0  0  0  0  0  0  0  0  0  0  0  0
   -1.7096   -2.0861    1.4644 C   0  0  0  0  0  0  0  0  0  0  0  0
   -0.3472   -1.9166    1.6741 C   0  0  0  0  0  0  0  0  0  0  0  0
    0.3771   -0.9914    0.9024 C   0  0  0  0  0  0  0  0  0  0  0  0
   -0.2417   -0.2105   -0.0973 C   0  0  0  0  0  0  0  0  0  0  0  0
   -1.6226   -0.4103   -0.2809 C   0  0  0  0  0  0  0  0  0  0  0  0
    0.5925    0.7416   -0.8622 C   0  0  0  0  0  0  0  0  0  0  0  0
    1.9097    0.8976   -0.6820 C   0  0  0  0  0  0  0  0  0  0  0  0
    2.6279    0.1163    0.3332 C   0  0  0  0  0  0  0  0  0  0  0  0
    3.8309    0.2596    0.4884 O   0  0  0  0  0  0  0  0  0  0  0  0
    1.8266   -0.8601    1.1743 C   0  0  0  0  0  0  0  0  0  0  0  0
    2.3761   -1.5123    2.0507 O   0  0  0  0  0  0  0  0  0  0  0  0
   -0.1722    1.7036   -2.0833 S   0  0  0  0  0  0  0  0  0  0  0  0
    0.7308    2.7206   -2.5804 O   0  0  0  0  0  0  0  0  0  0  0  0
   -0.9202    0.8778   -3.0042 O   0  0  0  0  0  0  0  0  0  0  0  0
   -1.2372    2.5239   -1.1919 O   0  0  0  0  0  0  0  0  0  0  0  0
   -3.4126   -1.4605    0.3136 H   0  0  0  0  0  0  0  0  0  0  0  0
   -2.2712   -2.8024    2.0592 H   0  0  0  0  0  0  0  0  0  0  0  0
    0.1520   -2.5085    2.4405 H   0  0  0  0  0  0  0  0  0  0  0  0
   -2.1969    0.1378   -1.0251 H   0  0  0  0  0  0  0  0  0  0  0  0
    2.5211    1.5897   -1.2526 H   0  0  0  0  0  0  0  0  0  0  0  0
   -1.2581    3.4458   -1.5291 H   0  0  0  0  0  0  0  0  0  0  0  0
  1  2  2  0
  2  3  1  0
  3  4  2  0
  4  5  1  0
  5  6  2  0
  5  7  1  0
  7  8  2  0
  8  9  1  0
  9 10  2  0
  9 11  1  0
 11 12  2  0
  7 13  1  0
 13 14  2  0
 13 15  2  0
 13 16  1  0
  6  1  1  0
 11  4  1  0
  1 17  1  0
  2 18  1  0
  3 19  1  0
  6 20  1  0
  8 21  1  0
 16 22  1  0
M  END
>  <cat1>  (5) 
1

$$$$
b_CID_4055-Menadione
     RDKit          3D

 21 22  0  0  0  0  0  0  0  0999 V2000
   -2.6308    0.9429   -1.9632 C   0  0  0  0  0  0  0  0  0  0  0  0
   -1.5994    0.4120   -1.0167 C   0  0  0  0  0  0  0  0  0  0  0  0
   -1.9007   -0.3713    0.0265 C   0  0  0  0  0  0  0  0  0  0  0  0
   -0.8776   -0.8901    0.9542 C   0  0  0  0  0  0  0  0  0  0  0  0
   -1.2026   -1.6034    1.8944 O   0  0  0  0  0  0  0  0  0  0  0  0
    0.5264   -0.5196    0.7053 C   0  0  0  0  0  0  0  0  0  0  0  0
    1.5288   -0.9913    1.5629 C   0  0  0  0  0  0  0  0  0  0  0  0
    2.8616   -0.6453    1.3346 C   0  0  0  0  0  0  0  0  0  0  0  0
    3.1956    0.1697    0.2532 C   0  0  0  0  0  0  0  0  0  0  0  0
    2.1974    0.6404   -0.6021 C   0  0  0  0  0  0  0  0  0  0  0  0
    0.8583    0.2949   -0.3758 C   0  0  0  0  0  0  0  0  0  0  0  0
   -0.1885    0.7993   -1.2880 C   0  0  0  0  0  0  0  0  0  0  0  0
    0.1001    1.5156   -2.2394 O   0  0  0  0  0  0  0  0  0  0  0  0
   -3.6397    0.6124   -1.6938 H   0  0  0  0  0  0  0  0  0  0  0  0
   -2.4305    0.5974   -2.9827 H   0  0  0  0  0  0  0  0  0  0  0  0
   -2.6290    2.0379   -1.9584 H   0  0  0  0  0  0  0  0  0  0  0  0
   -2.9201   -0.6692    0.2479 H   0  0  0  0  0  0  0  0  0  0  0  0
    1.2745   -1.6278    2.4087 H   0  0  0  0  0  0  0  0  0  0  0  0
    3.6395   -1.0119    2.0009 H   0  0  0  0  0  0  0  0  0  0  0  0
    4.2344    0.4395    0.0751 H   0  0  0  0  0  0  0  0  0  0  0  0
    2.4668    1.2762   -1.4440 H   0  0  0  0  0  0  0  0  0  0  0  0
  1  2  1  0
  2  3  2  0
  3  4  1  0
  4  5  2  0
  4  6  1  0
  6  7  2  0
  7  8  1  0
  8  9  2  0
  9 10  1  0
 10 11  2  0
 11 12  1  0
 12 13  2  0
 12  2  1  0
 11  6  1  0
  1 14  1  0
  1 15  1  0
  1 16  1  0
  3 17  1  0
  7 18  1  0
  8 19  1  0
  9 20  1  0
 10 21  1  0
M  END
>  <cat1>  (6) 
1

$$$$
CID_2022-Acyclovir
     RDKit          3D

 27 28  0  0  0  0  0  0  0  0999 V2000
   -2.7353   -1.3243    0.2435 C   0  0  0  0  0  0  0  0  0  0  0  0
   -3.1892   -1.2423   -0.9942 N   0  0  0  0  0  0  0  0  0  0  0  0
   -2.1349   -0.7343   -1.7254 C   0  0  0  0  0  0  0  0  0  0  0  0
   -1.0627   -0.5206   -0.9020 C   0  0  0  0  0  0  0  0  0  0  0  0
   -1.4374   -0.8834    0.3503 N   0  0  0  0  0  0  0  0  0  0  0  0
   -0.6953   -0.7438    1.5872 C   0  0  0  0  0  0  0  0  0  0  0  0
    0.6555   -1.1285    1.3610 O   0  0  0  0  0  0  0  0  0  0  0  0
    1.6073   -0.4055    2.1431 C   0  0  0  0  0  0  0  0  0  0  0  0
    1.8623    1.0040    1.5977 C   0  0  0  0  0  0  0  0  0  0  0  0
    2.2365    0.9375    0.2206 O   0  0  0  0  0  0  0  0  0  0  0  0
    0.1013   -0.0343   -1.3498 N   0  0  0  0  0  0  0  0  0  0  0  0
    0.1776    0.2399   -2.6890 C   0  0  0  0  0  0  0  0  0  0  0  0
   -0.7761    0.0906   -3.5609 N   0  0  0  0  0  0  0  0  0  0  0  0
   -2.0212   -0.4111   -3.1549 C   0  0  0  0  0  0  0  0  0  0  0  0
   -2.9502   -0.5697   -3.9396 O   0  0  0  0  0  0  0  0  0  0  0  0
    1.3909    0.7154   -3.0696 N   0  0  0  0  0  0  0  0  0  0  0  0
   -3.3035   -1.6829    1.0925 H   0  0  0  0  0  0  0  0  0  0  0  0
   -1.1344   -1.4065    2.3391 H   0  0  0  0  0  0  0  0  0  0  0  0
   -0.7992    0.2990    1.9023 H   0  0  0  0  0  0  0  0  0  0  0  0
    1.2925   -0.3759    3.1920 H   0  0  0  0  0  0  0  0  0  0  0  0
    2.5400   -0.9769    2.0873 H   0  0  0  0  0  0  0  0  0  0  0  0
    2.6698    1.4843    2.1586 H   0  0  0  0  0  0  0  0  0  0  0  0
    0.9659    1.6261    1.6651 H   0  0  0  0  0  0  0  0  0  0  0  0
    2.4516    1.8488   -0.0564 H   0  0  0  0  0  0  0  0  0  0  0  0
    0.9209    0.1134   -0.7571 H   0  0  0  0  0  0  0  0  0  0  0  0
    2.1699    0.2094   -2.6647 H   0  0  0  0  0  0  0  0  0  0  0  0
    1.4595    0.7414   -4.0832 H   0  0  0  0  0  0  0  0  0  0  0  0
  1  2  2  0
  2  3  1  0
  3  4  2  0
  4  5  1  0
  5  6  1  0
  6  7  1  0
  7  8  1  0
  8  9  1  0
  9 10  1  0
  4 11  1  0
 11 12  1  0
 12 13  2  0
 13 14  1  0
 14 15  2  0
 12 16  1  0
  5  1  1  0
 14  3  1  0
  1 17  1  0
  6 18  1  0
  6 19  1  0
  8 20  1  0
  8 21  1  0
  9 22  1  0
  9 23  1  0
 10 24  1  0
 11 25  1  0
 16 26  1  0
 16 27  1  0
M  END
>  <cat1>  (7) 
0

$$$$
CID_3059-Diflunisal
     RDKit          3D

 26 27  0  0  0  0  0  0  0  0999 V2000
   -1.2174    1.1767    0.1634 C   0  0  0  0  0  0  0  0  0  0  0  0
   -2.5776    0.9172   -0.0233 C   0  0  0  0  0  0  0  0  0  0  0  0
   -2.9977   -0.3543   -0.3993 C   0  0  0  0  0  0  0  0  0  0  0  0
   -2.0628   -1.3781   -0.5920 C   0  0  0  0  0  0  0  0  0  0  0  0
   -0.6977   -1.1085   -0.4021 C   0  0  0  0  0  0  0  0  0  0  0  0
   -0.2525    0.1712   -0.0220 C   0  0  0  0  0  0  0  0  0  0  0  0
    1.1817    0.4528    0.1706 C   0  0  0  0  0  0  0  0  0  0  0  0
    1.9916   -0.3553    0.9892 C   0  0  0  0  0  0  0  0  0  0  0  0
    3.3461   -0.0935    1.1744 C   0  0  0  0  0  0  0  0  0  0  0  0
    3.9141    0.9951    0.5322 C   0  0  0  0  0  0  0  0  0  0  0  0
    3.1522    1.8192   -0.2870 C   0  0  0  0  0  0  0  0  0  0  0  0
    1.7922    1.5494   -0.4671 C   0  0  0  0  0  0  0  0  0  0  0  0
    5.2163    1.2569    0.7020 F   0  0  0  0  0  0  0  0  0  0  0  0
    1.4627   -1.4103    1.6289 F   0  0  0  0  0  0  0  0  0  0  0  0
   -2.5297   -2.7232   -0.9929 C   0  0  0  0  0  0  0  0  0  0  0  0
   -3.7012   -3.0222   -1.1570 O   0  0  0  0  0  0  0  0  0  0  0  0
   -1.5403   -3.6128   -1.1726 O   0  0  0  0  0  0  0  0  0  0  0  0
   -4.3477   -0.5195   -0.5599 O   0  0  0  0  0  0  0  0  0  0  0  0
   -0.9176    2.1770    0.4713 H   0  0  0  0  0  0  0  0  0  0  0  0
   -3.3094    1.7065    0.1292 H   0  0  0  0  0  0  0  0  0  0  0  0
    0.0323   -1.9024   -0.5531 H   0  0  0  0  0  0  0  0  0  0  0  0
    3.9459   -0.7311    1.8130 H   0  0  0  0  0  0  0  0  0  0  0  0
    3.6198    2.6644   -0.7831 H   0  0  0  0  0  0  0  0  0  0  0  0
    1.2115    2.1972   -1.1218 H   0  0  0  0  0  0  0  0  0  0  0  0
   -1.9936   -4.4442   -1.4256 H   0  0  0  0  0  0  0  0  0  0  0  0
   -4.5262   -1.4520   -0.8106 H   0  0  0  0  0  0  0  0  0  0  0  0
  1  2  2  0
  2  3  1  0
  3  4  2  0
  4  5  1  0
  5  6  2  0
  6  7  1  0
  7  8  2  0
  8  9  1  0
  9 10  2  0
 10 11  1  0
 11 12  2  0
 10 13  1  0
  8 14  1  0
  4 15  1  0
 15 16  2  0
 15 17  1  0
  3 18  1  0
  6  1  1  0
 12  7  1  0
  1 19  1  0
  2 20  1  0
  5 21  1  0
  9 22  1  0
 11 23  1  0
 12 24  1  0
 17 25  1  0
 18 26  1  0
M  END
>  <cat1>  (8) 
0

$$$$
CID_9447-5-Chlorosalicylic acid
     RDKit          3D

 16 16  0  0  0  0  0  0  0  0999 V2000
   -0.9689    1.6574    1.0271 C   0  0  0  0  0  0  0  0  0  0  0  0
   -1.3688    0.8723   -0.0572 C   0  0  0  0  0  0  0  0  0  0  0  0
   -0.4242    0.1108   -0.7490 C   0  0  0  0  0  0  0  0  0  0  0  0
    0.9177    0.1235   -0.3486 C   0  0  0  0  0  0  0  0  0  0  0  0
    1.3188    0.9280    0.7262 C   0  0  0  0  0  0  0  0  0  0  0  0
    0.3718    1.6855    1.4100 C   0  0  0  0  0  0  0  0  0  0  0  0
    0.8571    2.6644    2.7387 Cl  0  0  0  0  0  0  0  0  0  0  0  0
    1.9676   -0.6601   -1.0254 C   0  0  0  0  0  0  0  0  0  0  0  0
    3.0950   -0.2658   -1.2624 O   0  0  0  0  0  0  0  0  0  0  0  0
    1.5952   -1.9281   -1.2650 O   0  0  0  0  0  0  0  0  0  0  0  0
   -0.8182   -0.6095   -1.8405 O   0  0  0  0  0  0  0  0  0  0  0  0
   -1.7049    2.2520    1.5630 H   0  0  0  0  0  0  0  0  0  0  0  0
   -2.4140    0.8774   -0.3536 H   0  0  0  0  0  0  0  0  0  0  0  0
    2.3641    0.9547    1.0260 H   0  0  0  0  0  0  0  0  0  0  0  0
    2.3742   -2.3318   -1.6980 H   0  0  0  0  0  0  0  0  0  0  0  0
   -1.7847   -0.5738   -1.9277 H   0  0  0  0  0  0  0  0  0  0  0  0
  1  2  2  0
  2  3  1  0
  3  4  2  0
  4  5  1  0
  5  6  2  0
  6  7  1  0
  4  8  1  0
  8  9  2  0
  8 10  1  0
  3 11  1  0
  6  1  1  0
  1 12  1  0
  2 13  1  0
  5 14  1  0
 10 15  1  0
 11 16  1  0
M  END
>  <cat1>  (9) 
0

$$$$
CID_464205-Tenofovir
     RDKit          3D

 33 34  0  0  0  0  0  0  0  0999 V2000
   -2.1991   -0.8210    1.2990 C   0  0  0  0  0  0  0  0  0  0  0  0
   -1.3002   -1.2329    0.1368 C   0  0  0  0  0  0  0  0  0  0  0  0
    0.0420   -1.7912    0.6303 C   0  0  0  0  0  0  0  0  0  0  0  0
    0.9343   -0.7772    1.1409 N   0  0  0  0  0  0  0  0  0  0  0  0
    1.2496   -0.5553    2.4536 C   0  0  0  0  0  0  0  0  0  0  0  0
    2.1045    0.4373    2.5907 N   0  0  0  0  0  0  0  0  0  0  0  0
    2.3519    0.8712    1.3023 C   0  0  0  0  0  0  0  0  0  0  0  0
    3.1686    1.8878    0.7800 C   0  0  0  0  0  0  0  0  0  0  0  0
    3.2242    2.0454   -0.5627 N   0  0  0  0  0  0  0  0  0  0  0  0
    2.4697    1.2336   -1.3361 C   0  0  0  0  0  0  0  0  0  0  0  0
    1.6444    0.2375   -0.9526 N   0  0  0  0  0  0  0  0  0  0  0  0
    1.6414    0.1150    0.3848 C   0  0  0  0  0  0  0  0  0  0  0  0
    3.9397    2.7281    1.5730 N   0  0  0  0  0  0  0  0  0  0  0  0
   -1.9936   -2.2646   -0.5800 O   0  0  0  0  0  0  0  0  0  0  0  0
   -1.7576   -2.2251   -1.9976 C   0  0  0  0  0  0  0  0  0  0  0  0
   -2.9780   -1.1988   -2.8168 P   0  0  0  0  0  0  0  0  0  0  0  0
   -2.9134   -1.1018   -4.3057 O   0  0  0  0  0  0  0  0  0  0  0  0
   -2.9217    0.2555   -2.1401 O   0  0  0  0  0  0  0  0  0  0  0  0
   -4.4218   -1.6980   -2.3270 O   0  0  0  0  0  0  0  0  0  0  0  0
   -3.1734   -0.4883    0.9241 H   0  0  0  0  0  0  0  0  0  0  0  0
   -2.3936   -1.6681    1.9661 H   0  0  0  0  0  0  0  0  0  0  0  0
   -1.7595   -0.0070    1.8824 H   0  0  0  0  0  0  0  0  0  0  0  0
   -1.1446   -0.3579   -0.5036 H   0  0  0  0  0  0  0  0  0  0  0  0
    0.5703   -2.3064   -0.1813 H   0  0  0  0  0  0  0  0  0  0  0  0
   -0.1123   -2.5451    1.4120 H   0  0  0  0  0  0  0  0  0  0  0  0
    0.8306   -1.1383    3.2645 H   0  0  0  0  0  0  0  0  0  0  0  0
    2.5395    1.4066   -2.4065 H   0  0  0  0  0  0  0  0  0  0  0  0
    4.1215    2.3532    2.4973 H   0  0  0  0  0  0  0  0  0  0  0  0
    4.7173    3.1253    1.0631 H   0  0  0  0  0  0  0  0  0  0  0  0
   -0.7372   -1.8974   -2.2222 H   0  0  0  0  0  0  0  0  0  0  0  0
   -1.8689   -3.2486   -2.3677 H   0  0  0  0  0  0  0  0  0  0  0  0
   -3.4180    0.9261   -2.6438 H   0  0  0  0  0  0  0  0  0  0  0  0
   -5.1537   -1.3372   -2.8582 H   0  0  0  0  0  0  0  0  0  0  0  0
  1  2  1  0
  2  3  1  0
  3  4  1  0
  4  5  1  0
  5  6  2  0
  6  7  1  0
  7  8  2  0
  8  9  1  0
  9 10  2  0
 10 11  1  0
 11 12  2  0
  8 13  1  0
  2 14  1  0
 14 15  1  0
 15 16  1  0
 16 17  2  0
 16 18  1  0
 16 19  1  0
 12  4  1  0
 12  7  1  0
  1 20  1  0
  1 21  1  0
  1 22  1  0
  2 23  1  0
  3 24  1  0
  3 25  1  0
  5 26  1  0
 10 27  1  0
 13 28  1  0
 13 29  1  0
 15 30  1  0
 15 31  1  0
 18 32  1  0
 19 33  1  0
M  END
>  <cat1>  (10) 
0

$$$$
CID_227-Anthranilic-acid
     RDKit          3D

 17 17  0  0  0  0  0  0  0  0999 V2000
    0.1336    0.7699   -2.2621 C   0  0  0  0  0  0  0  0  0  0  0  0
   -0.8619    1.5706   -1.7120 C   0  0  0  0  0  0  0  0  0  0  0  0
   -1.1738    1.4650   -0.3545 C   0  0  0  0  0  0  0  0  0  0  0  0
   -0.4744    0.5855    0.4854 C   0  0  0  0  0  0  0  0  0  0  0  0
    0.5015   -0.2565   -0.0891 C   0  0  0  0  0  0  0  0  0  0  0  0
    0.8104   -0.1454   -1.4562 C   0  0  0  0  0  0  0  0  0  0  0  0
    1.2419   -1.2261    0.7619 C   0  0  0  0  0  0  0  0  0  0  0  0
    1.2570   -1.2519    1.9807 O   0  0  0  0  0  0  0  0  0  0  0  0
    1.9402   -2.1289    0.0465 O   0  0  0  0  0  0  0  0  0  0  0  0
   -0.9321    0.4296    1.8075 N   0  0  0  0  0  0  0  0  0  0  0  0
    0.3747    0.8472   -3.3193 H   0  0  0  0  0  0  0  0  0  0  0  0
   -1.4093    2.2687   -2.3406 H   0  0  0  0  0  0  0  0  0  0  0  0
   -1.9807    2.0736    0.0472 H   0  0  0  0  0  0  0  0  0  0  0  0
    1.5780   -0.7725   -1.9035 H   0  0  0  0  0  0  0  0  0  0  0  0
    2.3513   -2.6996    0.7289 H   0  0  0  0  0  0  0  0  0  0  0  0
   -1.3030    1.2754    2.2266 H   0  0  0  0  0  0  0  0  0  0  0  0
   -0.2467   -0.0363    2.4108 H   0  0  0  0  0  0  0  0  0  0  0  0
  1  2  2  0
  2  3  1  0
  3  4  2  0
  4  5  1  0
  5  6  2  0
  5  7  1  0
  7  8  2  0
  7  9  1  0
  4 10  1  0
  6  1  1  0
  1 11  1  0
  2 12  1  0
  3 13  1  0
  6 14  1  0
  9 15  1  0
 10 16  1  0
 10 17  1  0
M  END
>  <cat1>  (11) 
0

$$$$
CID_3715-Indomethacin
     RDKit          3D

 41 43  0  0  0  0  0  0  0  0999 V2000
    0.2445    1.9057    2.7393 C   0  0  0  0  0  0  0  0  0  0  0  0
   -0.3013    0.8765    1.8022 C   0  0  0  0  0  0  0  0  0  0  0  0
   -1.5988    0.3929    1.7096 C   0  0  0  0  0  0  0  0  0  0  0  0
   -1.6010   -0.6141    0.7019 C   0  0  0  0  0  0  0  0  0  0  0  0
   -0.3027   -0.7204    0.1982 C   0  0  0  0  0  0  0  0  0  0  0  0
    0.4781    0.2685    0.8119 N   0  0  0  0  0  0  0  0  0  0  0  0
    1.8226    0.6015    0.4910 C   0  0  0  0  0  0  0  0  0  0  0  0
    2.5050    1.1686    1.3439 O   0  0  0  0  0  0  0  0  0  0  0  0
    2.4719    0.3597   -0.8174 C   0  0  0  0  0  0  0  0  0  0  0  0
    3.7797   -0.1398   -0.8455 C   0  0  0  0  0  0  0  0  0  0  0  0
    4.4189   -0.3468   -2.0700 C   0  0  0  0  0  0  0  0  0  0  0  0
    3.7564   -0.0383   -3.2582 C   0  0  0  0  0  0  0  0  0  0  0  0
    2.4627    0.4842   -3.2340 C   0  0  0  0  0  0  0  0  0  0  0  0
    1.8194    0.6934   -2.0114 C   0  0  0  0  0  0  0  0  0  0  0  0
    4.5434   -0.2961   -4.7658 Cl  0  0  0  0  0  0  0  0  0  0  0  0
    0.0191   -1.7286   -0.7338 C   0  0  0  0  0  0  0  0  0  0  0  0
   -0.9936   -2.5735   -1.2087 C   0  0  0  0  0  0  0  0  0  0  0  0
   -2.3004   -2.4448   -0.7590 C   0  0  0  0  0  0  0  0  0  0  0  0
   -2.6038   -1.4737    0.1999 C   0  0  0  0  0  0  0  0  0  0  0  0
   -3.3672   -3.2056   -1.1534 O   0  0  0  0  0  0  0  0  0  0  0  0
   -3.1118   -4.2295   -2.1065 C   0  0  0  0  0  0  0  0  0  0  0  0
   -2.7861    0.8124    2.5272 C   0  0  0  0  0  0  0  0  0  0  0  0
   -2.9394    0.0154    3.8016 C   0  0  0  0  0  0  0  0  0  0  0  0
   -2.1866   -0.8167    4.2783 O   0  0  0  0  0  0  0  0  0  0  0  0
   -4.0810    0.3334    4.4540 O   0  0  0  0  0  0  0  0  0  0  0  0
   -0.5297    2.2860    3.4123 H   0  0  0  0  0  0  0  0  0  0  0  0
    0.6436    2.7631    2.1883 H   0  0  0  0  0  0  0  0  0  0  0  0
    1.0307    1.4778    3.3692 H   0  0  0  0  0  0  0  0  0  0  0  0
    4.3019   -0.3638    0.0831 H   0  0  0  0  0  0  0  0  0  0  0  0
    5.4325   -0.7397   -2.0896 H   0  0  0  0  0  0  0  0  0  0  0  0
    1.9542    0.7363   -4.1615 H   0  0  0  0  0  0  0  0  0  0  0  0
    0.8181    1.1187   -2.0027 H   0  0  0  0  0  0  0  0  0  0  0  0
    1.0336   -1.8865   -1.0854 H   0  0  0  0  0  0  0  0  0  0  0  0
   -0.7139   -3.3336   -1.9316 H   0  0  0  0  0  0  0  0  0  0  0  0
   -3.6215   -1.4016    0.5745 H   0  0  0  0  0  0  0  0  0  0  0  0
   -2.4120   -4.9724   -1.7098 H   0  0  0  0  0  0  0  0  0  0  0  0
   -2.7501   -3.8087   -3.0505 H   0  0  0  0  0  0  0  0  0  0  0  0
   -4.0581   -4.7396   -2.3107 H   0  0  0  0  0  0  0  0  0  0  0  0
   -2.7068    1.8724    2.7913 H   0  0  0  0  0  0  0  0  0  0  0  0
   -3.6997    0.6871    1.9346 H   0  0  0  0  0  0  0  0  0  0  0  0
   -4.0555   -0.2407    5.2490 H   0  0  0  0  0  0  0  0  0  0  0  0
  1  2  1  0
  2  3  2  0
  3  4  1  0
  4  5  2  0
  5  6  1  0
  6  7  1  0
  7  8  2  0
  7  9  1  0
  9 10  2  0
 10 11  1  0
 11 12  2  0
 12 13  1  0
 13 14  2  0
 12 15  1  0
  5 16  1  0
 16 17  2  0
 17 18  1  0
 18 19  2  0
 18 20  1  0
 20 21  1  0
  3 22  1  0
 22 23  1  0
 23 24  2  0
 23 25  1  0
  6  2  1  0
 19  4  1  0
 14  9  1  0
  1 26  1  0
  1 27  1  0
  1 28  1  0
 10 29  1  0
 11 30  1  0
 13 31  1  0
 14 32  1  0
 16 33  1  0
 17 34  1  0
 19 35  1  0
 21 36  1  0
 21 37  1  0
 21 38  1  0
 22 39  1  0
 22 40  1  0
 25 41  1  0
M  END
>  <cat1>  (12) 
0

$$$$
CID_159772-4-Guanidinobenzoic acid hydrochloride
     RDKit          3D

 22 22  0  0  0  0  0  0  0  0999 V2000
    0.9513    1.3599   -0.9822 C   0  0  0  0  0  0  0  0  0  0  0  0
    0.0153    1.2942    0.0546 C   0  0  0  0  0  0  0  0  0  0  0  0
   -0.8396    0.1954    0.1716 C   0  0  0  0  0  0  0  0  0  0  0  0
   -0.7690   -0.8301   -0.7752 C   0  0  0  0  0  0  0  0  0  0  0  0
    0.1643   -0.7726   -1.8141 C   0  0  0  0  0  0  0  0  0  0  0  0
    1.0299    0.3231   -1.9200 C   0  0  0  0  0  0  0  0  0  0  0  0
    2.0037    0.3444   -3.0383 C   0  0  0  0  0  0  0  0  0  0  0  0
    2.1334   -0.5175   -3.8877 O   0  0  0  0  0  0  0  0  0  0  0  0
    2.7757    1.4454   -3.0376 O   0  0  0  0  0  0  0  0  0  0  0  0
   -1.7823    0.1526    1.2049 N   0  0  0  0  0  0  0  0  0  0  0  0
   -1.5314   -0.5423    2.2614 C   0  0  0  0  0  0  0  0  0  0  0  0
   -0.4432   -1.2862    2.5711 N   0  0  0  0  0  0  0  0  0  0  0  0
   -2.4346   -0.6048    3.2656 N   0  0  0  0  0  0  0  0  0  0  0  0
    1.6052    2.2255   -1.0517 H   0  0  0  0  0  0  0  0  0  0  0  0
   -0.0563    2.1051    0.7750 H   0  0  0  0  0  0  0  0  0  0  0  0
   -1.4480   -1.6755   -0.7005 H   0  0  0  0  0  0  0  0  0  0  0  0
    0.2071   -1.5809   -2.5414 H   0  0  0  0  0  0  0  0  0  0  0  0
    3.3540    1.3261   -3.8201 H   0  0  0  0  0  0  0  0  0  0  0  0
   -0.1821   -1.1909    3.5456 H   0  0  0  0  0  0  0  0  0  0  0  0
    0.3506   -1.1034    1.9673 H   0  0  0  0  0  0  0  0  0  0  0  0
   -3.3121   -0.1913    2.9637 H   0  0  0  0  0  0  0  0  0  0  0  0
   -2.5820   -1.5540    3.5865 H   0  0  0  0  0  0  0  0  0  0  0  0
  1  2  2  0
  2  3  1  0
  3  4  2  0
  4  5  1  0
  5  6  2  0
  6  7  1  0
  7  8  2  0
  7  9  1  0
  3 10  1  0
 10 11  2  3
 11 12  1  0
 11 13  1  0
  6  1  1  0
  1 14  1  0
  2 15  1  0
  4 16  1  0
  5 17  1  0
  9 18  1  0
 12 19  1  0
 12 20  1  0
 13 21  1  0
 13 22  1  0
M  END
>  <cat1>  (13) 
0

$$$$
CID_3698-Amrinone
     RDKit          3D

 23 24  0  0  0  0  0  0  0  0999 V2000
   -2.2232    0.5960    0.7222 C   0  0  0  0  0  0  0  0  0  0  0  0
   -3.4390    0.1519    1.2141 C   0  0  0  0  0  0  0  0  0  0  0  0
   -3.6655   -1.1147    1.6231 N   0  0  0  0  0  0  0  0  0  0  0  0
   -2.6314   -1.9779    1.5348 C   0  0  0  0  0  0  0  0  0  0  0  0
   -1.3780   -1.6314    1.0590 C   0  0  0  0  0  0  0  0  0  0  0  0
   -1.1679   -0.3143    0.6469 C   0  0  0  0  0  0  0  0  0  0  0  0
    0.1406    0.1113    0.1237 C   0  0  0  0  0  0  0  0  0  0  0  0
    1.1616    0.2576    0.9864 C   0  0  0  0  0  0  0  0  0  0  0  0
    2.3991    0.6562    0.5504 N   0  0  0  0  0  0  0  0  0  0  0  0
    2.7001    0.9342   -0.7603 C   0  0  0  0  0  0  0  0  0  0  0  0
    3.8316    1.2461   -1.1241 O   0  0  0  0  0  0  0  0  0  0  0  0
    1.5594    0.8068   -1.7554 C   0  0  0  0  0  0  0  0  0  0  0  0
    0.3694    0.3981   -1.2845 C   0  0  0  0  0  0  0  0  0  0  0  0
    1.8316    1.0994   -3.0820 N   0  0  0  0  0  0  0  0  0  0  0  0
   -2.1054    1.6284    0.4102 H   0  0  0  0  0  0  0  0  0  0  0  0
   -4.2891    0.8235    1.2947 H   0  0  0  0  0  0  0  0  0  0  0  0
   -2.8444   -2.9903    1.8663 H   0  0  0  0  0  0  0  0  0  0  0  0
   -0.5902   -2.3752    1.0076 H   0  0  0  0  0  0  0  0  0  0  0  0
    1.0693    0.0743    2.0532 H   0  0  0  0  0  0  0  0  0  0  0  0
    3.1656    0.7534    1.2047 H   0  0  0  0  0  0  0  0  0  0  0  0
   -0.4744    0.2890   -1.9587 H   0  0  0  0  0  0  0  0  0  0  0  0
    2.8419    1.0975   -3.2444 H   0  0  0  0  0  0  0  0  0  0  0  0
    1.3275    0.5084   -3.7350 H   0  0  0  0  0  0  0  0  0  0  0  0
  1  2  2  0
  2  3  1  0
  3  4  2  0
  4  5  1  0
  5  6  2  0
  6  7  1  0
  7  8  2  0
  8  9  1  0
  9 10  1  0
 10 11  2  0
 10 12  1  0
 12 13  2  0
 12 14  1  0
  6  1  1  0
 13  7  1  0
  1 15  1  0
  2 16  1  0
  4 17  1  0
  5 18  1  0
  8 19  1  0
  9 20  1  0
 13 21  1  0
 14 22  1  0
 14 23  1  0
M  END
>  <cat1>  (14) 
0

$$$$
CID_5280863-Kaempferol
     RDKit          3D

 31 33  0  0  0  0  0  0  0  0999 V2000
   -2.3176    0.0431    1.2054 C   0  0  0  0  0  0  0  0  0  0  0  0
   -3.1416    0.4185    2.2693 C   0  0  0  0  0  0  0  0  0  0  0  0
   -2.6082    0.5308    3.5463 C   0  0  0  0  0  0  0  0  0  0  0  0
   -1.2615    0.2772    3.7784 C   0  0  0  0  0  0  0  0  0  0  0  0
   -0.4382   -0.0976    2.7116 C   0  0  0  0  0  0  0  0  0  0  0  0
   -0.9556   -0.2287    1.4130 C   0  0  0  0  0  0  0  0  0  0  0  0
   -0.0979   -0.5998    0.2668 C   0  0  0  0  0  0  0  0  0  0  0  0
    0.7738   -1.6251    0.2978 C   0  0  0  0  0  0  0  0  0  0  0  0
    1.5702   -1.9124   -0.9174 C   0  0  0  0  0  0  0  0  0  0  0  0
    2.3752   -2.8413   -0.9315 O   0  0  0  0  0  0  0  0  0  0  0  0
    1.3590   -1.0547   -2.0844 C   0  0  0  0  0  0  0  0  0  0  0  0
    2.0678   -1.2442   -3.2753 C   0  0  0  0  0  0  0  0  0  0  0  0
    1.8404   -0.4090   -4.3665 C   0  0  0  0  0  0  0  0  0  0  0  0
    0.9008    0.6124   -4.2544 C   0  0  0  0  0  0  0  0  0  0  0  0
    0.1901    0.8086   -3.0733 C   0  0  0  0  0  0  0  0  0  0  0  0
    0.4222   -0.0306   -1.9842 C   0  0  0  0  0  0  0  0  0  0  0  0
   -0.3063    0.2062   -0.8468 O   0  0  0  0  0  0  0  0  0  0  0  0
    0.6431    1.4551   -5.2948 O   0  0  0  0  0  0  0  0  0  0  0  0
    3.0010   -2.2319   -3.4398 O   0  0  0  0  0  0  0  0  0  0  0  0
    0.9710   -2.4513    1.3888 O   0  0  0  0  0  0  0  0  0  0  0  0
   -3.4470    0.8985    4.5557 O   0  0  0  0  0  0  0  0  0  0  0  0
   -2.7516   -0.0405    0.2114 H   0  0  0  0  0  0  0  0  0  0  0  0
   -4.1951    0.6220    2.0999 H   0  0  0  0  0  0  0  0  0  0  0  0
   -0.8334    0.3649    4.7717 H   0  0  0  0  0  0  0  0  0  0  0  0
    0.6155   -0.2869    2.9052 H   0  0  0  0  0  0  0  0  0  0  0  0
    2.3984   -0.5688   -5.2838 H   0  0  0  0  0  0  0  0  0  0  0  0
   -0.5389    1.6116   -3.0049 H   0  0  0  0  0  0  0  0  0  0  0  0
    1.2050    1.2070   -6.0485 H   0  0  0  0  0  0  0  0  0  0  0  0
    3.0609   -2.7464   -2.6040 H   0  0  0  0  0  0  0  0  0  0  0  0
    1.6326   -3.1131    1.0970 H   0  0  0  0  0  0  0  0  0  0  0  0
   -2.9413    0.9229    5.3845 H   0  0  0  0  0  0  0  0  0  0  0  0
  1  2  2  0
  2  3  1  0
  3  4  2  0
  4  5  1  0
  5  6  2  0
  6  7  1  0
  7  8  2  0
  8  9  1  0
  9 10  2  0
  9 11  1  0
 11 12  2  0
 12 13  1  0
 13 14  2  0
 14 15  1  0
 15 16  2  0
 16 17  1  0
 14 18  1  0
 12 19  1  0
  8 20  1  0
  3 21  1  0
  6  1  1  0
 17  7  1  0
 16 11  1  0
  1 22  1  0
  2 23  1  0
  4 24  1  0
  5 25  1  0
 13 26  1  0
 15 27  1  0
 18 28  1  0
 19 29  1  0
 20 30  1  0
 21 31  1  0
M  END
>  <cat1>  (15) 
0

$$$$
CID_54676228-Piroxicam
     RDKit          3D

 36 38  0  0  0  0  0  0  0  0999 V2000
    0.0732   -3.1116   -1.8045 C   0  0  0  0  0  0  0  0  0  0  0  0
    0.7450   -1.9292   -1.2235 N   0  0  0  0  0  0  0  0  0  0  0  0
   -0.0398   -0.8938   -0.5661 C   0  0  0  0  0  0  0  0  0  0  0  0
    0.6466    0.1188    0.0162 C   0  0  0  0  0  0  0  0  0  0  0  0
    2.1235    0.2294    0.0063 C   0  0  0  0  0  0  0  0  0  0  0  0
    2.8242    0.9226    1.0057 C   0  0  0  0  0  0  0  0  0  0  0  0
    4.2189    1.0339    0.9559 C   0  0  0  0  0  0  0  0  0  0  0  0
    4.9364    0.4489   -0.0872 C   0  0  0  0  0  0  0  0  0  0  0  0
    4.2626   -0.2561   -1.0801 C   0  0  0  0  0  0  0  0  0  0  0  0
    2.8692   -0.3481   -1.0215 C   0  0  0  0  0  0  0  0  0  0  0  0
    1.9905   -1.3063   -2.2049 S   0  0  0  0  0  0  0  0  0  0  0  0
    1.4357   -0.3896   -3.1766 O   0  0  0  0  0  0  0  0  0  0  0  0
    2.8544   -2.4016   -2.5948 O   0  0  0  0  0  0  0  0  0  0  0  0
   -0.0080    1.1666    0.6530 O   0  0  0  0  0  0  0  0  0  0  0  0
   -1.5617   -0.9852   -0.5470 C   0  0  0  0  0  0  0  0  0  0  0  0
   -2.1498   -1.5859   -1.4407 O   0  0  0  0  0  0  0  0  0  0  0  0
   -2.1474   -0.3685    0.5366 N   0  0  0  0  0  0  0  0  0  0  0  0
   -3.5118   -0.3575    0.8433 C   0  0  0  0  0  0  0  0  0  0  0  0
   -3.9099    0.4009    1.9420 C   0  0  0  0  0  0  0  0  0  0  0  0
   -5.2590    0.4367    2.2916 C   0  0  0  0  0  0  0  0  0  0  0  0
   -6.1733   -0.2857    1.5383 C   0  0  0  0  0  0  0  0  0  0  0  0
   -5.6938   -1.0156    0.4663 C   0  0  0  0  0  0  0  0  0  0  0  0
   -4.3913   -1.0645    0.1141 N   0  0  0  0  0  0  0  0  0  0  0  0
   -0.6241   -3.5522   -1.0849 H   0  0  0  0  0  0  0  0  0  0  0  0
   -0.4515   -2.8596   -2.7305 H   0  0  0  0  0  0  0  0  0  0  0  0
    0.8092   -3.8925   -2.0217 H   0  0  0  0  0  0  0  0  0  0  0  0
    2.3015    1.3660    1.8509 H   0  0  0  0  0  0  0  0  0  0  0  0
    4.7488    1.5701    1.7407 H   0  0  0  0  0  0  0  0  0  0  0  0
    6.0207    0.5300   -0.1171 H   0  0  0  0  0  0  0  0  0  0  0  0
    4.8175   -0.7355   -1.8839 H   0  0  0  0  0  0  0  0  0  0  0  0
    0.5189    1.9759    0.5004 H   0  0  0  0  0  0  0  0  0  0  0  0
   -1.5396    0.1834    1.1288 H   0  0  0  0  0  0  0  0  0  0  0  0
   -3.1913    0.9643    2.5268 H   0  0  0  0  0  0  0  0  0  0  0  0
   -5.5906    1.0236    3.1431 H   0  0  0  0  0  0  0  0  0  0  0  0
   -7.2304   -0.2817    1.7777 H   0  0  0  0  0  0  0  0  0  0  0  0
   -6.3605   -1.6007   -0.1605 H   0  0  0  0  0  0  0  0  0  0  0  0
  1  2  1  0
  2  3  1  0
  3  4  2  0
  4  5  1  0
  5  6  2  0
  6  7  1  0
  7  8  2  0
  8  9  1  0
  9 10  2  0
 10 11  1  0
 11 12  2  0
 11 13  2  0
  4 14  1  0
  3 15  1  0
 15 16  2  0
 15 17  1  0
 17 18  1  0
 18 19  2  0
 19 20  1  0
 20 21  2  0
 21 22  1  0
 22 23  2  0
 11  2  1  0
 10  5  1  0
 23 18  1  0
  1 24  1  0
  1 25  1  0
  1 26  1  0
  6 27  1  0
  7 28  1  0
  8 29  1  0
  9 30  1  0
 14 31  1  0
 17 32  1  0
 19 33  1  0
 20 34  1  0
 21 35  1  0
 22 36  1  0
M  END
>  <cat1>  (16) 
0

$$$$
CID_54677971-Tenoxicam
     RDKit          3D

 33 35  0  0  0  0  0  0  0  0999 V2000
    1.6937   -1.0126   -2.5110 C   0  0  0  0  0  0  0  0  0  0  0  0
    1.3135    0.1820   -1.7338 N   0  0  0  0  0  0  0  0  0  0  0  0
    0.5248    0.0614   -0.5077 C   0  0  0  0  0  0  0  0  0  0  0  0
    0.1966    1.1690    0.2029 C   0  0  0  0  0  0  0  0  0  0  0  0
    0.6745    2.4714   -0.1393 C   0  0  0  0  0  0  0  0  0  0  0  0
    1.6887    2.7590   -1.0193 C   0  0  0  0  0  0  0  0  0  0  0  0
    2.4425    1.4402   -1.8065 S   0  0  0  0  0  0  0  0  0  0  0  0
    2.5855    1.8806   -3.1763 O   0  0  0  0  0  0  0  0  0  0  0  0
    3.5750    1.1260   -0.9658 O   0  0  0  0  0  0  0  0  0  0  0  0
    1.9845    4.1366   -1.1632 C   0  0  0  0  0  0  0  0  0  0  0  0
    1.1594    4.8954   -0.3628 C   0  0  0  0  0  0  0  0  0  0  0  0
    0.0633    3.9295    0.5363 S   0  0  0  0  0  0  0  0  0  0  0  0
   -0.6030    1.1074    1.3319 O   0  0  0  0  0  0  0  0  0  0  0  0
    0.0387   -1.3157   -0.0825 C   0  0  0  0  0  0  0  0  0  0  0  0
    0.7496   -2.3011   -0.2639 O   0  0  0  0  0  0  0  0  0  0  0  0
   -1.2235   -1.3411    0.4526 N   0  0  0  0  0  0  0  0  0  0  0  0
   -1.9661   -2.4345    0.8943 C   0  0  0  0  0  0  0  0  0  0  0  0
   -1.5479   -3.7547    0.8021 C   0  0  0  0  0  0  0  0  0  0  0  0
   -2.3881   -4.7614    1.2773 C   0  0  0  0  0  0  0  0  0  0  0  0
   -3.6167   -4.4232    1.8267 C   0  0  0  0  0  0  0  0  0  0  0  0
   -3.9553   -3.0836    1.8770 C   0  0  0  0  0  0  0  0  0  0  0  0
   -3.1607   -2.0886    1.4235 N   0  0  0  0  0  0  0  0  0  0  0  0
    2.4481   -1.6024   -1.9827 H   0  0  0  0  0  0  0  0  0  0  0  0
    2.1018   -0.7245   -3.4853 H   0  0  0  0  0  0  0  0  0  0  0  0
    0.8151   -1.6291   -2.7249 H   0  0  0  0  0  0  0  0  0  0  0  0
    2.7488    4.5458   -1.8137 H   0  0  0  0  0  0  0  0  0  0  0  0
    1.1449    5.9725   -0.2591 H   0  0  0  0  0  0  0  0  0  0  0  0
   -0.6286    1.9966    1.7361 H   0  0  0  0  0  0  0  0  0  0  0  0
   -1.6890   -0.4615    0.6437 H   0  0  0  0  0  0  0  0  0  0  0  0
   -0.5920   -4.0308    0.3746 H   0  0  0  0  0  0  0  0  0  0  0  0
   -2.0790   -5.8012    1.2164 H   0  0  0  0  0  0  0  0  0  0  0  0
   -4.2913   -5.1826    2.2051 H   0  0  0  0  0  0  0  0  0  0  0  0
   -4.9046   -2.7626    2.2961 H   0  0  0  0  0  0  0  0  0  0  0  0
  1  2  1  0
  2  3  1  0
  3  4  2  0
  4  5  1  0
  5  6  2  0
  6  7  1  0
  7  8  2  0
  7  9  2  0
  6 10  1  0
 10 11  2  0
 11 12  1  0
  4 13  1  0
  3 14  1  0
 14 15  2  0
 14 16  1  0
 16 17  1  0
 17 18  2  0
 18 19  1  0
 19 20  2  0
 20 21  1  0
 21 22  2  0
  7  2  1  0
 12  5  1  0
 22 17  1  0
  1 23  1  0
  1 24  1  0
  1 25  1  0
 10 26  1  0
 11 27  1  0
 13 28  1  0
 16 29  1  0
 18 30  1  0
 19 31  1  0
 20 32  1  0
 21 33  1  0
M  END
>  <cat1>  (17) 
0

$$$$
b_CID_5281605-Baicalein
     RDKit          3D

 30 32  0  0  0  0  0  0  0  0999 V2000
   -2.5529    3.5097    2.2075 C   0  0  0  0  0  0  0  0  0  0  0  0
   -1.9811    2.5462    3.0350 C   0  0  0  0  0  0  0  0  0  0  0  0
   -1.3768    1.4148    2.4798 C   0  0  0  0  0  0  0  0  0  0  0  0
   -1.3421    1.2305    1.0888 C   0  0  0  0  0  0  0  0  0  0  0  0
   -1.9133    2.2158    0.2692 C   0  0  0  0  0  0  0  0  0  0  0  0
   -2.5177    3.3463    0.8249 C   0  0  0  0  0  0  0  0  0  0  0  0
   -0.7006    0.0479    0.4815 C   0  0  0  0  0  0  0  0  0  0  0  0
   -0.8877   -1.1849    0.9758 C   0  0  0  0  0  0  0  0  0  0  0  0
   -0.2296   -2.3223    0.3192 C   0  0  0  0  0  0  0  0  0  0  0  0
   -0.3575   -3.4708    0.7295 O   0  0  0  0  0  0  0  0  0  0  0  0
    0.5952   -2.0307   -0.8566 C   0  0  0  0  0  0  0  0  0  0  0  0
    0.7035   -0.7032   -1.2778 C   0  0  0  0  0  0  0  0  0  0  0  0
    0.0701    0.3324   -0.6362 O   0  0  0  0  0  0  0  0  0  0  0  0
    1.4782   -0.3789   -2.3944 C   0  0  0  0  0  0  0  0  0  0  0  0
    2.1370   -1.3935   -3.0774 C   0  0  0  0  0  0  0  0  0  0  0  0
    2.0302   -2.7158   -2.6592 C   0  0  0  0  0  0  0  0  0  0  0  0
    1.2611   -3.0446   -1.5491 C   0  0  0  0  0  0  0  0  0  0  0  0
    1.2050   -4.3698   -1.1997 O   0  0  0  0  0  0  0  0  0  0  0  0
    2.6939   -3.6882   -3.3577 O   0  0  0  0  0  0  0  0  0  0  0  0
    2.8945   -1.0825   -4.1687 O   0  0  0  0  0  0  0  0  0  0  0  0
   -3.0214    4.3903    2.6397 H   0  0  0  0  0  0  0  0  0  0  0  0
   -1.9999    2.6772    4.1141 H   0  0  0  0  0  0  0  0  0  0  0  0
   -0.9220    0.6881    3.1492 H   0  0  0  0  0  0  0  0  0  0  0  0
   -1.8975    2.1087   -0.8137 H   0  0  0  0  0  0  0  0  0  0  0  0
   -2.9590    4.0992    0.1767 H   0  0  0  0  0  0  0  0  0  0  0  0
   -1.5090   -1.4068    1.8336 H   0  0  0  0  0  0  0  0  0  0  0  0
    1.5685    0.6505   -2.7281 H   0  0  0  0  0  0  0  0  0  0  0  0
    0.6274   -4.4440   -0.4038 H   0  0  0  0  0  0  0  0  0  0  0  0
    2.4736   -4.5197   -2.8868 H   0  0  0  0  0  0  0  0  0  0  0  0
    3.2545   -1.9393   -4.4771 H   0  0  0  0  0  0  0  0  0  0  0  0
  1  2  2  0
  2  3  1  0
  3  4  2  0
  4  5  1  0
  5  6  2  0
  4  7  1  0
  7  8  2  0
  8  9  1  0
  9 10  2  0
  9 11  1  0
 11 12  2  0
 12 13  1  0
 12 14  1  0
 14 15  2  0
 15 16  1  0
 16 17  2  0
 17 18  1  0
 16 19  1  0
 15 20  1  0
  6  1  1  0
 13  7  1  0
 17 11  1  0
  1 21  1  0
  2 22  1  0
  3 23  1  0
  5 24  1  0
  6 25  1  0
  8 26  1  0
 14 27  1  0
 18 28  1  0
 19 29  1  0
 20 30  1  0
M  END
>  <cat1>  (18) 
1

$$$$
CID_5280373-Biochanin A
     RDKit          3D

 33 35  0  0  0  0  0  0  0  0999 V2000
   -3.8700    1.4217    4.6260 C   0  0  0  0  0  0  0  0  0  0  0  0
   -2.7059    1.9844    4.0347 O   0  0  0  0  0  0  0  0  0  0  0  0
   -2.1051    1.2622    3.0416 C   0  0  0  0  0  0  0  0  0  0  0  0
   -2.5054    0.0098    2.5789 C   0  0  0  0  0  0  0  0  0  0  0  0
   -1.7937   -0.6221    1.5505 C   0  0  0  0  0  0  0  0  0  0  0  0
   -0.6702   -0.0137    0.9710 C   0  0  0  0  0  0  0  0  0  0  0  0
   -0.2807    1.2467    1.4378 C   0  0  0  0  0  0  0  0  0  0  0  0
   -0.9916    1.8750    2.4650 C   0  0  0  0  0  0  0  0  0  0  0  0
    0.0847   -0.6804   -0.1048 C   0  0  0  0  0  0  0  0  0  0  0  0
    0.5264   -1.9389    0.0457 C   0  0  0  0  0  0  0  0  0  0  0  0
    1.2477   -2.6737   -0.8636 O   0  0  0  0  0  0  0  0  0  0  0  0
    1.5700   -2.0763   -2.0562 C   0  0  0  0  0  0  0  0  0  0  0  0
    2.3036   -2.8407   -2.9662 C   0  0  0  0  0  0  0  0  0  0  0  0
    2.6581   -2.2831   -4.1917 C   0  0  0  0  0  0  0  0  0  0  0  0
    2.2922   -0.9808   -4.5187 C   0  0  0  0  0  0  0  0  0  0  0  0
    1.5608   -0.2240   -3.6069 C   0  0  0  0  0  0  0  0  0  0  0  0
    1.1972   -0.7701   -2.3707 C   0  0  0  0  0  0  0  0  0  0  0  0
    0.4249    0.0018   -1.3830 C   0  0  0  0  0  0  0  0  0  0  0  0
    0.0911    1.1549   -1.6405 O   0  0  0  0  0  0  0  0  0  0  0  0
    1.2303    1.0492   -3.9864 O   0  0  0  0  0  0  0  0  0  0  0  0
    3.3739   -2.9907   -5.1116 O   0  0  0  0  0  0  0  0  0  0  0  0
   -3.6386    0.4784    5.1316 H   0  0  0  0  0  0  0  0  0  0  0  0
   -4.2337    2.1240    5.3823 H   0  0  0  0  0  0  0  0  0  0  0  0
   -4.6652    1.2890    3.8850 H   0  0  0  0  0  0  0  0  0  0  0  0
   -3.3679   -0.5028    2.9915 H   0  0  0  0  0  0  0  0  0  0  0  0
   -2.1387   -1.5930    1.2007 H   0  0  0  0  0  0  0  0  0  0  0  0
    0.5772    1.7585    1.0061 H   0  0  0  0  0  0  0  0  0  0  0  0
   -0.6755    2.8555    2.8137 H   0  0  0  0  0  0  0  0  0  0  0  0
    0.3646   -2.5331    0.9378 H   0  0  0  0  0  0  0  0  0  0  0  0
    2.5870   -3.8559   -2.7069 H   0  0  0  0  0  0  0  0  0  0  0  0
    2.5745   -0.5568   -5.4783 H   0  0  0  0  0  0  0  0  0  0  0  0
    0.7162    1.4632   -3.2562 H   0  0  0  0  0  0  0  0  0  0  0  0
    3.5646   -3.8756   -4.7592 H   0  0  0  0  0  0  0  0  0  0  0  0
  1  2  1  0
  2  3  1  0
  3  4  2  0
  4  5  1  0
  5  6  2  0
  6  7  1  0
  7  8  2  0
  6  9  1  0
  9 10  2  0
 10 11  1  0
 11 12  1  0
 12 13  2  0
 13 14  1  0
 14 15  2  0
 15 16  1  0
 16 17  2  0
 17 18  1  0
 18 19  2  0
 16 20  1  0
 14 21  1  0
  8  3  1  0
 18  9  1  0
 17 12  1  0
  1 22  1  0
  1 23  1  0
  1 24  1  0
  4 25  1  0
  5 26  1  0
  7 27  1  0
  8 28  1  0
 10 29  1  0
 13 30  1  0
 15 31  1  0
 20 32  1  0
 21 33  1  0
M  END
>  <cat1>  (19) 
0

$$$$
CID_2723601-2-Amino-6-mercaptopurine
     RDKit          3D

 16 17  0  0  0  0  0  0  0  0999 V2000
    0.3577    3.0816   -0.1468 C   0  0  0  0  0  0  0  0  0  0  0  0
    0.7107    2.2990   -1.1476 N   0  0  0  0  0  0  0  0  0  0  0  0
    0.5401    1.0486   -0.6567 C   0  0  0  0  0  0  0  0  0  0  0  0
    0.0715    1.0373    0.6259 C   0  0  0  0  0  0  0  0  0  0  0  0
   -0.0344    2.3618    0.9545 N   0  0  0  0  0  0  0  0  0  0  0  0
   -0.2172   -0.1734    1.3311 C   0  0  0  0  0  0  0  0  0  0  0  0
   -0.7454   -0.0969    2.9155 S   0  0  0  0  0  0  0  0  0  0  0  0
   -0.0261   -1.3272    0.5924 N   0  0  0  0  0  0  0  0  0  0  0  0
    0.4268   -1.2286   -0.6236 C   0  0  0  0  0  0  0  0  0  0  0  0
    0.7694   -0.0939   -1.3040 N   0  0  0  0  0  0  0  0  0  0  0  0
    0.6162   -2.3580   -1.3560 N   0  0  0  0  0  0  0  0  0  0  0  0
    0.3615    4.1639   -0.1566 H   0  0  0  0  0  0  0  0  0  0  0  0
   -0.3563    2.7343    1.8386 H   0  0  0  0  0  0  0  0  0  0  0  0
    0.9065   -0.1139   -2.3029 H   0  0  0  0  0  0  0  0  0  0  0  0
    0.4839   -3.1820   -0.7754 H   0  0  0  0  0  0  0  0  0  0  0  0
    1.5132   -2.3959   -1.8249 H   0  0  0  0  0  0  0  0  0  0  0  0
  1  2  2  0
  2  3  1  0
  3  4  2  0
  4  5  1  0
  4  6  1  0
  6  7  2  0
  6  8  1  0
  8  9  2  0
  9 10  1  0
  9 11  1  0
  5  1  1  0
 10  3  1  0
  1 12  1  0
  5 13  1  0
 10 14  1  0
 11 15  1  0
 11 16  1  0
M  END
>  <cat1>  (20) 
0

$$$$
b_CID_2333-Benzbromarone
     RDKit          3D

 34 36  0  0  0  0  0  0  0  0999 V2000
    0.6698    1.6636   -3.4567 C   0  0  0  0  0  0  0  0  0  0  0  0
    1.1629    2.2992   -2.1668 C   0  0  0  0  0  0  0  0  0  0  0  0
    1.3552    1.2844   -1.0959 C   0  0  0  0  0  0  0  0  0  0  0  0
    0.4912    0.6156   -0.2400 C   0  0  0  0  0  0  0  0  0  0  0  0
    1.3248   -0.2168    0.5793 C   0  0  0  0  0  0  0  0  0  0  0  0
    1.1370   -1.0990    1.6641 C   0  0  0  0  0  0  0  0  0  0  0  0
    2.2493   -1.7575    2.2097 C   0  0  0  0  0  0  0  0  0  0  0  0
    3.5316   -1.5442    1.7018 C   0  0  0  0  0  0  0  0  0  0  0  0
    3.7468   -0.6619    0.6400 C   0  0  0  0  0  0  0  0  0  0  0  0
    2.6229   -0.0231    0.1206 C   0  0  0  0  0  0  0  0  0  0  0  0
    2.6390    0.8785   -0.8938 O   0  0  0  0  0  0  0  0  0  0  0  0
   -0.9506    0.8030   -0.2259 C   0  0  0  0  0  0  0  0  0  0  0  0
   -1.4801    1.8787   -0.4907 O   0  0  0  0  0  0  0  0  0  0  0  0
   -1.8327   -0.3467    0.0958 C   0  0  0  0  0  0  0  0  0  0  0  0
   -2.9817   -0.1133    0.8617 C   0  0  0  0  0  0  0  0  0  0  0  0
   -3.8402   -1.1710    1.1689 C   0  0  0  0  0  0  0  0  0  0  0  0
   -3.5638   -2.4590    0.7020 C   0  0  0  0  0  0  0  0  0  0  0  0
   -2.4272   -2.6816   -0.0823 C   0  0  0  0  0  0  0  0  0  0  0  0
   -1.5635   -1.6308   -0.3945 C   0  0  0  0  0  0  0  0  0  0  0  0
   -2.0278   -4.4138   -0.7417 Br  0  0  0  0  0  0  0  0  0  0  0  0
   -4.4128   -3.4866    1.0165 O   0  0  0  0  0  0  0  0  0  0  0  0
   -5.3718   -0.8072    2.2265 Br  0  0  0  0  0  0  0  0  0  0  0  0
    1.3778    0.9122   -3.8229 H   0  0  0  0  0  0  0  0  0  0  0  0
    0.5507    2.4257   -4.2334 H   0  0  0  0  0  0  0  0  0  0  0  0
   -0.2980    1.1710   -3.3145 H   0  0  0  0  0  0  0  0  0  0  0  0
    2.1098    2.8171   -2.3604 H   0  0  0  0  0  0  0  0  0  0  0  0
    0.4529    3.0646   -1.8357 H   0  0  0  0  0  0  0  0  0  0  0  0
    0.1542   -1.2713    2.0925 H   0  0  0  0  0  0  0  0  0  0  0  0
    2.1104   -2.4398    3.0461 H   0  0  0  0  0  0  0  0  0  0  0  0
    4.3791   -2.0641    2.1440 H   0  0  0  0  0  0  0  0  0  0  0  0
    4.7358   -0.4728    0.2403 H   0  0  0  0  0  0  0  0  0  0  0  0
   -3.2007    0.8931    1.2154 H   0  0  0  0  0  0  0  0  0  0  0  0
   -0.6934   -1.8122   -1.0219 H   0  0  0  0  0  0  0  0  0  0  0  0
   -4.0818   -4.2988    0.5922 H   0  0  0  0  0  0  0  0  0  0  0  0
  1  2  1  0
  2  3  1  0
  3  4  2  0
  4  5  1  0
  5  6  2  0
  6  7  1  0
  7  8  2  0
  8  9  1  0
  9 10  2  0
 10 11  1  0
  4 12  1  0
 12 13  2  0
 12 14  1  0
 14 15  2  0
 15 16  1  0
 16 17  2  0
 17 18  1  0
 18 19  2  0
 18 20  1  0
 17 21  1  0
 16 22  1  0
 11  3  1  0
 10  5  1  0
 19 14  1  0
  1 23  1  0
  1 24  1  0
  1 25  1  0
  2 26  1  0
  2 27  1  0
  6 28  1  0
  7 29  1  0
  8 30  1  0
  9 31  1  0
 15 32  1  0
 19 33  1  0
 21 34  1  0
M  END
>  <cat1>  (21) 
1

$$$$
CID_2265-Azathioprine
     RDKit          3D

 26 28  0  0  0  0  0  0  0  0999 V2000
    0.2892    2.1446    2.0304 C   0  0  0  0  0  0  0  0  0  0  0  0
   -0.5465    0.9680    1.9598 N   0  0  0  0  0  0  0  0  0  0  0  0
   -1.8523    0.9297    2.3757 C   0  0  0  0  0  0  0  0  0  0  0  0
   -2.3768   -0.2661    2.2326 N   0  0  0  0  0  0  0  0  0  0  0  0
   -1.3643   -1.0380    1.6923 C   0  0  0  0  0  0  0  0  0  0  0  0
   -0.2187   -0.2871    1.4999 C   0  0  0  0  0  0  0  0  0  0  0  0
    1.3665   -0.6737    0.9049 S   0  0  0  0  0  0  0  0  0  0  0  0
    1.1628   -0.1309   -0.7618 C   0  0  0  0  0  0  0  0  0  0  0  0
    1.4167    1.1558   -1.0803 N   0  0  0  0  0  0  0  0  0  0  0  0
    1.2925    1.5207   -2.3730 C   0  0  0  0  0  0  0  0  0  0  0  0
    0.9313    0.7617   -3.4134 N   0  0  0  0  0  0  0  0  0  0  0  0
    0.6761   -0.5123   -3.0684 C   0  0  0  0  0  0  0  0  0  0  0  0
    0.7796   -0.9836   -1.7737 C   0  0  0  0  0  0  0  0  0  0  0  0
    0.4283   -2.3035   -1.8566 N   0  0  0  0  0  0  0  0  0  0  0  0
    0.1328   -2.5687   -3.1656 C   0  0  0  0  0  0  0  0  0  0  0  0
    0.2810   -1.5043   -3.9234 N   0  0  0  0  0  0  0  0  0  0  0  0
   -1.5965   -2.4357    1.4035 N   0  0  0  0  0  0  0  0  0  0  0  0
   -0.8075   -2.9957    0.6230 O   0  0  0  0  0  0  0  0  0  0  0  0
   -2.5671   -2.9816    1.9433 O   0  0  0  0  0  0  0  0  0  0  0  0
    1.2678    1.8717    2.4317 H   0  0  0  0  0  0  0  0  0  0  0  0
   -0.1751    2.8768    2.6969 H   0  0  0  0  0  0  0  0  0  0  0  0
    0.3773    2.5677    1.0279 H   0  0  0  0  0  0  0  0  0  0  0  0
   -2.3661    1.7959    2.7759 H   0  0  0  0  0  0  0  0  0  0  0  0
    1.5130    2.5601   -2.5981 H   0  0  0  0  0  0  0  0  0  0  0  0
    0.3391   -2.9488   -1.0784 H   0  0  0  0  0  0  0  0  0  0  0  0
   -0.1884   -3.5468   -3.5003 H   0  0  0  0  0  0  0  0  0  0  0  0
  1  2  1  0
  2  3  1  0
  3  4  2  0
  4  5  1  0
  5  6  2  0
  6  7  1  0
  7  8  1  0
  8  9  2  0
  9 10  1  0
 10 11  2  0
 11 12  1  0
 12 13  2  0
 13 14  1  0
 14 15  1  0
 15 16  2  0
  5 17  1  0
 17 18  2  0
 17 19  1  0
  6  2  1  0
 13  8  1  0
 16 12  1  0
  1 20  1  0
  1 21  1  0
  1 22  1  0
  3 23  1  0
 10 24  1  0
 14 25  1  0
 15 26  1  0
M  CHG  2  17   1  19  -1
M  END
>  <cat1>  (22) 
0

$$$$
CID_3332-4-Biphenylacetic-acid
     RDKit          3D

 28 29  0  0  0  0  0  0  0  0999 V2000
   -2.8002   -0.8852    3.5473 C   0  0  0  0  0  0  0  0  0  0  0  0
   -3.2277   -1.1743    2.2540 C   0  0  0  0  0  0  0  0  0  0  0  0
   -2.3676   -0.9723    1.1711 C   0  0  0  0  0  0  0  0  0  0  0  0
   -1.0665   -0.4771    1.3611 C   0  0  0  0  0  0  0  0  0  0  0  0
   -0.6560   -0.1916    2.6741 C   0  0  0  0  0  0  0  0  0  0  0  0
   -1.5144   -0.3941    3.7584 C   0  0  0  0  0  0  0  0  0  0  0  0
   -0.1614   -0.2639    0.2196 C   0  0  0  0  0  0  0  0  0  0  0  0
    0.4567    0.9786    0.0081 C   0  0  0  0  0  0  0  0  0  0  0  0
    1.3150    1.1843   -1.0769 C   0  0  0  0  0  0  0  0  0  0  0  0
    1.5832    0.1463   -1.9758 C   0  0  0  0  0  0  0  0  0  0  0  0
    0.9658   -1.0939   -1.7796 C   0  0  0  0  0  0  0  0  0  0  0  0
    0.1070   -1.2948   -0.6943 C   0  0  0  0  0  0  0  0  0  0  0  0
    2.4923    0.3704   -3.1551 C   0  0  0  0  0  0  0  0  0  0  0  0
    1.7375    0.7170   -4.4101 C   0  0  0  0  0  0  0  0  0  0  0  0
    1.1843   -0.0675   -5.1643 O   0  0  0  0  0  0  0  0  0  0  0  0
    1.6941    2.0431   -4.6519 O   0  0  0  0  0  0  0  0  0  0  0  0
   -3.4683   -1.0427    4.3898 H   0  0  0  0  0  0  0  0  0  0  0  0
   -4.2315   -1.5550    2.0848 H   0  0  0  0  0  0  0  0  0  0  0  0
   -2.7255   -1.1939    0.1676 H   0  0  0  0  0  0  0  0  0  0  0  0
    0.3485    0.1820    2.8623 H   0  0  0  0  0  0  0  0  0  0  0  0
   -1.1759   -0.1703    4.7666 H   0  0  0  0  0  0  0  0  0  0  0  0
    0.2595    1.8073    0.6855 H   0  0  0  0  0  0  0  0  0  0  0  0
    1.7669    2.1645   -1.2150 H   0  0  0  0  0  0  0  0  0  0  0  0
    1.1445   -1.9144   -2.4721 H   0  0  0  0  0  0  0  0  0  0  0  0
   -0.3492   -2.2740   -0.5614 H   0  0  0  0  0  0  0  0  0  0  0  0
    3.2217    1.1607   -2.9386 H   0  0  0  0  0  0  0  0  0  0  0  0
    3.0923   -0.5262   -3.3533 H   0  0  0  0  0  0  0  0  0  0  0  0
    1.1456    2.1156   -5.4612 H   0  0  0  0  0  0  0  0  0  0  0  0
  1  2  2  0
  2  3  1  0
  3  4  2  0
  4  5  1  0
  5  6  2  0
  4  7  1  0
  7  8  2  0
  8  9  1  0
  9 10  2  0
 10 11  1  0
 11 12  2  0
 10 13  1  0
 13 14  1  0
 14 15  2  0
 14 16  1  0
  6  1  1  0
 12  7  1  0
  1 17  1  0
  2 18  1  0
  3 19  1  0
  5 20  1  0
  6 21  1  0
  8 22  1  0
  9 23  1  0
 11 24  1  0
 12 25  1  0
 13 26  1  0
 13 27  1  0
 16 28  1  0
M  END
>  <cat1>  (23) 
0

$$$$
CID_2471-Bumetanide
     RDKit          3D

 45 46  0  0  0  0  0  0  0  0999 V2000
   -2.8366    0.8287    3.6023 C   0  0  0  0  0  0  0  0  0  0  0  0
   -1.4583    0.4628    4.1305 C   0  0  0  0  0  0  0  0  0  0  0  0
   -0.9233   -0.8649    3.5833 C   0  0  0  0  0  0  0  0  0  0  0  0
   -0.7332   -0.9082    2.0624 C   0  0  0  0  0  0  0  0  0  0  0  0
    0.2427    0.0888    1.6505 N   0  0  0  0  0  0  0  0  0  0  0  0
    0.5866    0.3784    0.3290 C   0  0  0  0  0  0  0  0  0  0  0  0
   -0.0750   -0.0634   -0.8393 C   0  0  0  0  0  0  0  0  0  0  0  0
    0.2661    0.4717   -2.0962 C   0  0  0  0  0  0  0  0  0  0  0  0
    1.3055    1.4010   -2.2209 C   0  0  0  0  0  0  0  0  0  0  0  0
    1.9919    1.8243   -1.0865 C   0  0  0  0  0  0  0  0  0  0  0  0
    1.6172    1.3295    0.1688 C   0  0  0  0  0  0  0  0  0  0  0  0
    3.0841    2.8140   -1.2482 C   0  0  0  0  0  0  0  0  0  0  0  0
    3.4538    3.2981   -2.3009 O   0  0  0  0  0  0  0  0  0  0  0  0
    3.6678    3.1445   -0.0837 O   0  0  0  0  0  0  0  0  0  0  0  0
   -0.6185    0.0537   -3.5749 S   0  0  0  0  0  0  0  0  0  0  0  0
   -0.5127    1.1739   -4.4822 O   0  0  0  0  0  0  0  0  0  0  0  0
   -0.2296   -1.2807   -3.9632 O   0  0  0  0  0  0  0  0  0  0  0  0
   -2.2377   -0.0236   -3.1188 N   0  0  0  0  0  0  0  0  0  0  0  0
   -1.1087   -0.9652   -0.7506 O   0  0  0  0  0  0  0  0  0  0  0  0
   -0.8280   -2.3083   -0.9195 C   0  0  0  0  0  0  0  0  0  0  0  0
   -1.9474   -3.1471   -0.8959 C   0  0  0  0  0  0  0  0  0  0  0  0
   -1.7990   -4.5262   -1.0458 C   0  0  0  0  0  0  0  0  0  0  0  0
   -0.5292   -5.0730   -1.2173 C   0  0  0  0  0  0  0  0  0  0  0  0
    0.5902   -4.2420   -1.2355 C   0  0  0  0  0  0  0  0  0  0  0  0
    0.4446   -2.8608   -1.0838 C   0  0  0  0  0  0  0  0  0  0  0  0
   -3.2082    1.7236    4.1117 H   0  0  0  0  0  0  0  0  0  0  0  0
   -2.8106    1.0464    2.5305 H   0  0  0  0  0  0  0  0  0  0  0  0
   -3.5522    0.0188    3.7754 H   0  0  0  0  0  0  0  0  0  0  0  0
   -1.5135    0.3866    5.2232 H   0  0  0  0  0  0  0  0  0  0  0  0
   -0.7569    1.2756    3.9103 H   0  0  0  0  0  0  0  0  0  0  0  0
   -1.6070   -1.6723    3.8733 H   0  0  0  0  0  0  0  0  0  0  0  0
    0.0358   -1.0773    4.0727 H   0  0  0  0  0  0  0  0  0  0  0  0
   -0.3719   -1.9072    1.7988 H   0  0  0  0  0  0  0  0  0  0  0  0
   -1.7004   -0.7418    1.5802 H   0  0  0  0  0  0  0  0  0  0  0  0
    1.0359    0.1513    2.2856 H   0  0  0  0  0  0  0  0  0  0  0  0
    1.5722    1.8052   -3.1978 H   0  0  0  0  0  0  0  0  0  0  0  0
    2.1245    1.7084    1.0552 H   0  0  0  0  0  0  0  0  0  0  0  0
    4.3547    3.7952   -0.3425 H   0  0  0  0  0  0  0  0  0  0  0  0
   -2.5519   -0.9891   -3.2365 H   0  0  0  0  0  0  0  0  0  0  0  0
   -2.3978    0.2989   -2.1648 H   0  0  0  0  0  0  0  0  0  0  0  0
   -2.9408   -2.7288   -0.7573 H   0  0  0  0  0  0  0  0  0  0  0  0
   -2.6719   -5.1737   -1.0315 H   0  0  0  0  0  0  0  0  0  0  0  0
   -0.4104   -6.1466   -1.3408 H   0  0  0  0  0  0  0  0  0  0  0  0
    1.5803   -4.6695   -1.3744 H   0  0  0  0  0  0  0  0  0  0  0  0
    1.3387   -2.2460   -1.1030 H   0  0  0  0  0  0  0  0  0  0  0  0
  1  2  1  0
  2  3  1  0
  3  4  1  0
  4  5  1  0
  5  6  1  0
  6  7  2  0
  7  8  1  0
  8  9  2  0
  9 10  1  0
 10 11  2  0
 10 12  1  0
 12 13  2  0
 12 14  1  0
  8 15  1  0
 15 16  2  0
 15 17  2  0
 15 18  1  0
  7 19  1  0
 19 20  1  0
 20 21  2  0
 21 22  1  0
 22 23  2  0
 23 24  1  0
 24 25  2  0
 11  6  1  0
 25 20  1  0
  1 26  1  0
  1 27  1  0
  1 28  1  0
  2 29  1  0
  2 30  1  0
  3 31  1  0
  3 32  1  0
  4 33  1  0
  4 34  1  0
  5 35  1  0
  9 36  1  0
 11 37  1  0
 14 38  1  0
 18 39  1  0
 18 40  1  0
 21 41  1  0
 22 42  1  0
 23 43  1  0
 24 44  1  0
 25 45  1  0
M  END
>  <cat1>  (24) 
0

$$$$
CID_5090-Rofecoxib
     RDKit          3D

 36 38  0  0  0  0  0  0  0  0999 V2000
    0.8608    1.3938    4.3199 C   0  0  0  0  0  0  0  0  0  0  0  0
    2.3057    1.1763    3.3144 S   0  0  0  0  0  0  0  0  0  0  0  0
    3.0326    0.0216    3.8055 O   0  0  0  0  0  0  0  0  0  0  0  0
    2.9580    2.4649    3.1792 O   0  0  0  0  0  0  0  0  0  0  0  0
    1.6357    0.7464    1.7254 C   0  0  0  0  0  0  0  0  0  0  0  0
    1.4545    1.7357    0.7578 C   0  0  0  0  0  0  0  0  0  0  0  0
    0.9410    1.3882   -0.4951 C   0  0  0  0  0  0  0  0  0  0  0  0
    0.6084    0.0574   -0.7895 C   0  0  0  0  0  0  0  0  0  0  0  0
    0.8201   -0.9250    0.1909 C   0  0  0  0  0  0  0  0  0  0  0  0
    1.3345   -0.5866    1.4449 C   0  0  0  0  0  0  0  0  0  0  0  0
    0.0876   -0.3075   -2.1119 C   0  0  0  0  0  0  0  0  0  0  0  0
   -0.9785   -1.0618   -2.4144 C   0  0  0  0  0  0  0  0  0  0  0  0
   -0.9973   -1.1542   -3.8911 C   0  0  0  0  0  0  0  0  0  0  0  0
   -1.8017   -1.7780   -4.5606 O   0  0  0  0  0  0  0  0  0  0  0  0
    0.0348   -0.4318   -4.4067 O   0  0  0  0  0  0  0  0  0  0  0  0
    0.7683    0.1606   -3.3413 C   0  0  0  0  0  0  0  0  0  0  0  0
   -1.9542   -1.7054   -1.5307 C   0  0  0  0  0  0  0  0  0  0  0  0
   -2.5829   -0.9866   -0.5029 C   0  0  0  0  0  0  0  0  0  0  0  0
   -3.5100   -1.6072    0.3381 C   0  0  0  0  0  0  0  0  0  0  0  0
   -3.8250   -2.9517    0.1568 C   0  0  0  0  0  0  0  0  0  0  0  0
   -3.2181   -3.6745   -0.8676 C   0  0  0  0  0  0  0  0  0  0  0  0
   -2.2904   -3.0543   -1.7083 C   0  0  0  0  0  0  0  0  0  0  0  0
    0.3043    0.4553    4.3538 H   0  0  0  0  0  0  0  0  0  0  0  0
    0.2493    2.1931    3.8971 H   0  0  0  0  0  0  0  0  0  0  0  0
    1.1864    1.6682    5.3256 H   0  0  0  0  0  0  0  0  0  0  0  0
    1.7134    2.7727    0.9634 H   0  0  0  0  0  0  0  0  0  0  0  0
    0.7967    2.1763   -1.2314 H   0  0  0  0  0  0  0  0  0  0  0  0
    0.5988   -1.9712   -0.0158 H   0  0  0  0  0  0  0  0  0  0  0  0
    1.5047   -1.3674    2.1836 H   0  0  0  0  0  0  0  0  0  0  0  0
    0.7346    1.2478   -3.4591 H   0  0  0  0  0  0  0  0  0  0  0  0
    1.8066   -0.1818   -3.3947 H   0  0  0  0  0  0  0  0  0  0  0  0
   -2.3637    0.0678   -0.3506 H   0  0  0  0  0  0  0  0  0  0  0  0
   -3.9918   -1.0386    1.1292 H   0  0  0  0  0  0  0  0  0  0  0  0
   -4.5506   -3.4343    0.8065 H   0  0  0  0  0  0  0  0  0  0  0  0
   -3.4714   -4.7208   -1.0199 H   0  0  0  0  0  0  0  0  0  0  0  0
   -1.8381   -3.6379   -2.5084 H   0  0  0  0  0  0  0  0  0  0  0  0
  1  2  1  0
  2  3  2  0
  2  4  2  0
  2  5  1  0
  5  6  2  0
  6  7  1  0
  7  8  2  0
  8  9  1  0
  9 10  2  0
  8 11  1  0
 11 12  2  0
 12 13  1  0
 13 14  2  0
 13 15  1  0
 15 16  1  0
 12 17  1  0
 17 18  2  0
 18 19  1  0
 19 20  2  0
 20 21  1  0
 21 22  2  0
 10  5  1  0
 16 11  1  0
 22 17  1  0
  1 23  1  0
  1 24  1  0
  1 25  1  0
  6 26  1  0
  7 27  1  0
  9 28  1  0
 10 29  1  0
 16 30  1  0
 16 31  1  0
 18 32  1  0
 19 33  1  0
 20 34  1  0
 21 35  1  0
 22 36  1  0
M  END
>  <cat1>  (25) 
0

$$$$
CID_3840-Kojic-acid
     RDKit          3D

 16 16  0  0  0  0  0  0  0  0999 V2000
    0.0040    1.0249   -1.0516 C   0  0  0  0  0  0  0  0  0  0  0  0
    0.9602    0.1594   -0.6796 C   0  0  0  0  0  0  0  0  0  0  0  0
    0.9111   -0.5561    0.5122 O   0  0  0  0  0  0  0  0  0  0  0  0
   -0.1624   -0.3628    1.3494 C   0  0  0  0  0  0  0  0  0  0  0  0
   -1.1782    0.4669    1.1031 C   0  0  0  0  0  0  0  0  0  0  0  0
   -1.1523    1.2375   -0.1637 C   0  0  0  0  0  0  0  0  0  0  0  0
   -2.0635    2.0091   -0.4428 O   0  0  0  0  0  0  0  0  0  0  0  0
   -2.2375    0.6311    1.9688 O   0  0  0  0  0  0  0  0  0  0  0  0
    2.1727   -0.1241   -1.5154 C   0  0  0  0  0  0  0  0  0  0  0  0
    3.3433    0.2489   -0.8010 O   0  0  0  0  0  0  0  0  0  0  0  0
    0.0307    1.5905   -1.9735 H   0  0  0  0  0  0  0  0  0  0  0  0
   -0.0860   -0.9696    2.2405 H   0  0  0  0  0  0  0  0  0  0  0  0
   -2.8187    1.2916    1.5349 H   0  0  0  0  0  0  0  0  0  0  0  0
    2.2329   -1.1915   -1.7511 H   0  0  0  0  0  0  0  0  0  0  0  0
    2.1615    0.4299   -2.4593 H   0  0  0  0  0  0  0  0  0  0  0  0
    3.2601   -0.1289    0.0925 H   0  0  0  0  0  0  0  0  0  0  0  0
  1  2  2  0
  2  3  1  0
  3  4  1  0
  4  5  2  0
  5  6  1  0
  6  7  2  0
  5  8  1  0
  2  9  1  0
  9 10  1  0
  6  1  1  0
  1 11  1  0
  4 12  1  0
  8 13  1  0
  9 14  1  0
  9 15  1  0
 10 16  1  0
M  END
>  <cat1>  (26) 
0

$$$$
CID_5161-Salsalate
     RDKit          3D

 29 30  0  0  0  0  0  0  0  0999 V2000
   -1.3766    1.8668    2.8896 C   0  0  0  0  0  0  0  0  0  0  0  0
   -2.2273    1.1029    3.6875 C   0  0  0  0  0  0  0  0  0  0  0  0
   -2.4333   -0.2450    3.3960 C   0  0  0  0  0  0  0  0  0  0  0  0
   -1.7863   -0.8299    2.3084 C   0  0  0  0  0  0  0  0  0  0  0  0
   -0.9158   -0.0763    1.5063 C   0  0  0  0  0  0  0  0  0  0  0  0
   -0.7228    1.2822    1.8014 C   0  0  0  0  0  0  0  0  0  0  0  0
   -0.2286   -0.7306    0.3648 C   0  0  0  0  0  0  0  0  0  0  0  0
   -0.5338   -1.8541   -0.0188 O   0  0  0  0  0  0  0  0  0  0  0  0
    0.7824    0.0727   -0.1240 O   0  0  0  0  0  0  0  0  0  0  0  0
    1.4033   -0.4762   -1.2499 C   0  0  0  0  0  0  0  0  0  0  0  0
    2.5878   -1.1886   -1.0367 C   0  0  0  0  0  0  0  0  0  0  0  0
    3.2666   -1.7372   -2.1229 C   0  0  0  0  0  0  0  0  0  0  0  0
    2.7701   -1.5638   -3.4146 C   0  0  0  0  0  0  0  0  0  0  0  0
    1.5953   -0.8342   -3.6256 C   0  0  0  0  0  0  0  0  0  0  0  0
    0.9001   -0.2742   -2.5429 C   0  0  0  0  0  0  0  0  0  0  0  0
   -0.3321    0.5277   -2.7594 C   0  0  0  0  0  0  0  0  0  0  0  0
   -0.9592    1.1483   -1.9211 O   0  0  0  0  0  0  0  0  0  0  0  0
   -0.7342    0.5198   -4.0448 O   0  0  0  0  0  0  0  0  0  0  0  0
   -2.0576   -2.1559    2.0924 O   0  0  0  0  0  0  0  0  0  0  0  0
   -1.2256    2.9208    3.1113 H   0  0  0  0  0  0  0  0  0  0  0  0
   -2.7367    1.5580    4.5333 H   0  0  0  0  0  0  0  0  0  0  0  0
   -3.1020   -0.8408    4.0120 H   0  0  0  0  0  0  0  0  0  0  0  0
   -0.0777    1.9046    1.1856 H   0  0  0  0  0  0  0  0  0  0  0  0
    2.9740   -1.3226   -0.0300 H   0  0  0  0  0  0  0  0  0  0  0  0
    4.1821   -2.3020   -1.9632 H   0  0  0  0  0  0  0  0  0  0  0  0
    3.2992   -1.9944   -4.2618 H   0  0  0  0  0  0  0  0  0  0  0  0
    1.2340   -0.7064   -4.6436 H   0  0  0  0  0  0  0  0  0  0  0  0
   -1.5508    1.0621   -4.0379 H   0  0  0  0  0  0  0  0  0  0  0  0
   -1.6274   -2.4319    1.2532 H   0  0  0  0  0  0  0  0  0  0  0  0
  1  2  2  0
  2  3  1  0
  3  4  2  0
  4  5  1  0
  5  6  2  0
  5  7  1  0
  7  8  2  0
  7  9  1  0
  9 10  1  0
 10 11  2  0
 11 12  1  0
 12 13  2  0
 13 14  1  0
 14 15  2  0
 15 16  1  0
 16 17  2  0
 16 18  1  0
  4 19  1  0
  6  1  1  0
 15 10  1  0
  1 20  1  0
  2 21  1  0
  3 22  1  0
  6 23  1  0
 11 24  1  0
 12 25  1  0
 13 26  1  0
 14 27  1  0
 18 28  1  0
 19 29  1  0
M  END
>  <cat1>  (27) 
0

$$$$
CID_3342-Fenoprofen
     RDKit          3D

 32 33  0  0  0  0  0  0  0  0999 V2000
   -2.8060   -1.1594    0.5020 C   0  0  0  0  0  0  0  0  0  0  0  0
   -2.2056   -0.2906    1.6109 C   0  0  0  0  0  0  0  0  0  0  0  0
   -0.6875   -0.3206    1.6167 C   0  0  0  0  0  0  0  0  0  0  0  0
    0.0557    0.0499    0.4841 C   0  0  0  0  0  0  0  0  0  0  0  0
    1.4535    0.0081    0.5093 C   0  0  0  0  0  0  0  0  0  0  0  0
    2.1249   -0.3565    1.6742 C   0  0  0  0  0  0  0  0  0  0  0  0
    1.3989   -0.7166    2.8076 C   0  0  0  0  0  0  0  0  0  0  0  0
    0.0025   -0.7014    2.7787 C   0  0  0  0  0  0  0  0  0  0  0  0
    2.2266    0.3874   -0.5650 O   0  0  0  0  0  0  0  0  0  0  0  0
    1.8868   -0.1220   -1.7979 C   0  0  0  0  0  0  0  0  0  0  0  0
    1.8739    0.7706   -2.8700 C   0  0  0  0  0  0  0  0  0  0  0  0
    1.5681    0.3131   -4.1521 C   0  0  0  0  0  0  0  0  0  0  0  0
    1.2910   -1.0382   -4.3624 C   0  0  0  0  0  0  0  0  0  0  0  0
    1.3267   -1.9346   -3.2935 C   0  0  0  0  0  0  0  0  0  0  0  0
    1.6327   -1.4796   -2.0101 C   0  0  0  0  0  0  0  0  0  0  0  0
   -2.7354    1.1323    1.5899 C   0  0  0  0  0  0  0  0  0  0  0  0
   -2.8922    1.8491    2.5673 O   0  0  0  0  0  0  0  0  0  0  0  0
   -2.9960    1.6147    0.3587 O   0  0  0  0  0  0  0  0  0  0  0  0
   -2.4762   -2.1995    0.6014 H   0  0  0  0  0  0  0  0  0  0  0  0
   -3.9005   -1.1447    0.5523 H   0  0  0  0  0  0  0  0  0  0  0  0
   -2.5225   -0.8171   -0.4992 H   0  0  0  0  0  0  0  0  0  0  0  0
   -2.5734   -0.7205    2.5533 H   0  0  0  0  0  0  0  0  0  0  0  0
   -0.4524    0.3813   -0.4188 H   0  0  0  0  0  0  0  0  0  0  0  0
    3.2110   -0.3609    1.6977 H   0  0  0  0  0  0  0  0  0  0  0  0
    1.9202   -1.0035    3.7173 H   0  0  0  0  0  0  0  0  0  0  0  0
   -0.5433   -0.9795    3.6784 H   0  0  0  0  0  0  0  0  0  0  0  0
    2.0970    1.8210   -2.7050 H   0  0  0  0  0  0  0  0  0  0  0  0
    1.5500    1.0087   -4.9869 H   0  0  0  0  0  0  0  0  0  0  0  0
    1.0549   -1.3947   -5.3619 H   0  0  0  0  0  0  0  0  0  0  0  0
    1.1228   -2.9890   -3.4607 H   0  0  0  0  0  0  0  0  0  0  0  0
    1.6765   -2.1862   -1.1862 H   0  0  0  0  0  0  0  0  0  0  0  0
   -3.2703    2.5411    0.5249 H   0  0  0  0  0  0  0  0  0  0  0  0
  1  2  1  0
  2  3  1  0
  3  4  2  0
  4  5  1  0
  5  6  2  0
  6  7  1  0
  7  8  2  0
  5  9  1  0
  9 10  1  0
 10 11  2  0
 11 12  1  0
 12 13  2  0
 13 14  1  0
 14 15  2  0
  2 16  1  0
 16 17  2  0
 16 18  1  0
  8  3  1  0
 15 10  1  0
  1 19  1  0
  1 20  1  0
  1 21  1  0
  2 22  1  0
  4 23  1  0
  6 24  1  0
  7 25  1  0
  8 26  1  0
 11 27  1  0
 12 28  1  0
 13 29  1  0
 14 30  1  0
 15 31  1  0
 18 32  1  0
M  END
>  <cat1>  (28) 
0

$$$$
CID_6292-Methaqualone
     RDKit          3D

 33 35  0  0  0  0  0  0  0  0999 V2000
   -2.9242   -0.1472    0.4701 C   0  0  0  0  0  0  0  0  0  0  0  0
   -2.0323   -0.9891    1.3409 C   0  0  0  0  0  0  0  0  0  0  0  0
   -2.6218   -1.7354    2.3756 C   0  0  0  0  0  0  0  0  0  0  0  0
   -1.8451   -2.5267    3.2227 C   0  0  0  0  0  0  0  0  0  0  0  0
   -0.4677   -2.5951    3.0425 C   0  0  0  0  0  0  0  0  0  0  0  0
    0.1334   -1.8747    2.0110 C   0  0  0  0  0  0  0  0  0  0  0  0
   -0.6376   -1.0718    1.1528 C   0  0  0  0  0  0  0  0  0  0  0  0
    0.0201   -0.3705    0.0971 N   0  0  0  0  0  0  0  0  0  0  0  0
    0.9738    0.6025    0.3581 C   0  0  0  0  0  0  0  0  0  0  0  0
    1.6746    1.1910   -0.5607 N   0  0  0  0  0  0  0  0  0  0  0  0
    1.4482    0.8532   -1.8975 C   0  0  0  0  0  0  0  0  0  0  0  0
    2.1886    1.5013   -2.8895 C   0  0  0  0  0  0  0  0  0  0  0  0
    1.9877    1.2019   -4.2398 C   0  0  0  0  0  0  0  0  0  0  0  0
    1.0406    0.2481   -4.6095 C   0  0  0  0  0  0  0  0  0  0  0  0
    0.2961   -0.4052   -3.6281 C   0  0  0  0  0  0  0  0  0  0  0  0
    0.5047   -0.0959   -2.2775 C   0  0  0  0  0  0  0  0  0  0  0  0
   -0.2540   -0.7785   -1.2139 C   0  0  0  0  0  0  0  0  0  0  0  0
   -1.0399   -1.6675   -1.5387 O   0  0  0  0  0  0  0  0  0  0  0  0
    1.2142    1.0509    1.7853 C   0  0  0  0  0  0  0  0  0  0  0  0
   -3.8045    0.1901    1.0286 H   0  0  0  0  0  0  0  0  0  0  0  0
   -3.2662   -0.7236   -0.3942 H   0  0  0  0  0  0  0  0  0  0  0  0
   -2.4114    0.7561    0.1253 H   0  0  0  0  0  0  0  0  0  0  0  0
   -3.6990   -1.7017    2.5281 H   0  0  0  0  0  0  0  0  0  0  0  0
   -2.3192   -3.0965    4.0181 H   0  0  0  0  0  0  0  0  0  0  0  0
    0.1363   -3.2215    3.6938 H   0  0  0  0  0  0  0  0  0  0  0  0
    1.2063   -1.9704    1.8610 H   0  0  0  0  0  0  0  0  0  0  0  0
    2.9269    2.2466   -2.6040 H   0  0  0  0  0  0  0  0  0  0  0  0
    2.5715    1.7143   -5.0006 H   0  0  0  0  0  0  0  0  0  0  0  0
    0.8837    0.0124   -5.6593 H   0  0  0  0  0  0  0  0  0  0  0  0
   -0.4404   -1.1531   -3.9135 H   0  0  0  0  0  0  0  0  0  0  0  0
    0.2855    1.0903    2.3593 H   0  0  0  0  0  0  0  0  0  0  0  0
    1.6506    2.0551    1.7878 H   0  0  0  0  0  0  0  0  0  0  0  0
    1.9235    0.3730    2.2675 H   0  0  0  0  0  0  0  0  0  0  0  0
  1  2  1  0
  2  3  2  0
  3  4  1  0
  4  5  2  0
  5  6  1  0
  6  7  2  0
  7  8  1  0
  8  9  1  0
  9 10  2  0
 10 11  1  0
 11 12  2  0
 12 13  1  0
 13 14  2  0
 14 15  1  0
 15 16  2  0
 16 17  1  0
 17 18  2  0
  9 19  1  0
  7  2  1  0
 17  8  1  0
 16 11  1  0
  1 20  1  0
  1 21  1  0
  1 22  1  0
  3 23  1  0
  4 24  1  0
  5 25  1  0
  6 26  1  0
 12 27  1  0
 13 28  1  0
 14 29  1  0
 15 30  1  0
 19 31  1  0
 19 32  1  0
 19 33  1  0
M  END
>  <cat1>  (29) 
0

$$$$
CID_5281894-7-Hydroxyflavone
     RDKit          3D

 28 30  0  0  0  0  0  0  0  0999 V2000
   -2.4535   -0.5047    3.7882 C   0  0  0  0  0  0  0  0  0  0  0  0
   -2.4734   -1.4164    2.7354 C   0  0  0  0  0  0  0  0  0  0  0  0
   -1.6165   -1.2449    1.6452 C   0  0  0  0  0  0  0  0  0  0  0  0
   -0.7241   -0.1633    1.5969 C   0  0  0  0  0  0  0  0  0  0  0  0
   -0.7224    0.7517    2.6609 C   0  0  0  0  0  0  0  0  0  0  0  0
   -1.5803    0.5800    3.7508 C   0  0  0  0  0  0  0  0  0  0  0  0
    0.1666    0.0059    0.4327 C   0  0  0  0  0  0  0  0  0  0  0  0
    1.4606    0.3263    0.5793 C   0  0  0  0  0  0  0  0  0  0  0  0
    2.3064    0.4741   -0.6158 C   0  0  0  0  0  0  0  0  0  0  0  0
    3.4896    0.7710   -0.5184 O   0  0  0  0  0  0  0  0  0  0  0  0
    1.6535    0.2490   -1.9136 C   0  0  0  0  0  0  0  0  0  0  0  0
    0.3010   -0.0872   -1.9318 C   0  0  0  0  0  0  0  0  0  0  0  0
   -0.4485   -0.2195   -0.7895 O   0  0  0  0  0  0  0  0  0  0  0  0
   -0.3499   -0.3066   -3.1467 C   0  0  0  0  0  0  0  0  0  0  0  0
    0.3695   -0.1854   -4.3329 C   0  0  0  0  0  0  0  0  0  0  0  0
    1.7213    0.1492   -4.3225 C   0  0  0  0  0  0  0  0  0  0  0  0
    2.3708    0.3688   -3.1073 C   0  0  0  0  0  0  0  0  0  0  0  0
   -0.2207   -0.3889   -5.5449 O   0  0  0  0  0  0  0  0  0  0  0  0
   -3.1207   -0.6374    4.6360 H   0  0  0  0  0  0  0  0  0  0  0  0
   -3.1558   -2.2621    2.7612 H   0  0  0  0  0  0  0  0  0  0  0  0
   -1.6464   -1.9699    0.8345 H   0  0  0  0  0  0  0  0  0  0  0  0
   -0.0625    1.6164    2.6493 H   0  0  0  0  0  0  0  0  0  0  0  0
   -1.5689    1.2965    4.5683 H   0  0  0  0  0  0  0  0  0  0  0  0
    1.9431    0.4785    1.5360 H   0  0  0  0  0  0  0  0  0  0  0  0
   -1.4033   -0.5668   -3.1499 H   0  0  0  0  0  0  0  0  0  0  0  0
    2.2670    0.2393   -5.2583 H   0  0  0  0  0  0  0  0  0  0  0  0
    3.4264    0.6309   -3.0928 H   0  0  0  0  0  0  0  0  0  0  0  0
   -1.1580   -0.6060   -5.4095 H   0  0  0  0  0  0  0  0  0  0  0  0
  1  2  2  0
  2  3  1  0
  3  4  2  0
  4  5  1  0
  5  6  2  0
  4  7  1  0
  7  8  2  0
  8  9  1  0
  9 10  2  0
  9 11  1  0
 11 12  2  0
 12 13  1  0
 12 14  1  0
 14 15  2  0
 15 16  1  0
 16 17  2  0
 15 18  1  0
  6  1  1  0
 13  7  1  0
 17 11  1  0
  1 19  1  0
  2 20  1  0
  3 21  1  0
  5 22  1  0
  6 23  1  0
  8 24  1  0
 14 25  1  0
 16 26  1  0
 17 27  1  0
 18 28  1  0
M  END
>  <cat1>  (30) 
0

$$$$
b_CID_5280443-Apigenin
     RDKit          3D

 30 32  0  0  0  0  0  0  0  0999 V2000
   -2.3076    0.0257    1.2437 C   0  0  0  0  0  0  0  0  0  0  0  0
   -3.1907    0.5013    2.2181 C   0  0  0  0  0  0  0  0  0  0  0  0
   -2.6834    1.0376    3.3956 C   0  0  0  0  0  0  0  0  0  0  0  0
   -1.3133    1.1080    3.6114 C   0  0  0  0  0  0  0  0  0  0  0  0
   -0.4319    0.6317    2.6375 C   0  0  0  0  0  0  0  0  0  0  0  0
   -0.9184    0.0771    1.4433 C   0  0  0  0  0  0  0  0  0  0  0  0
   -0.0052   -0.4225    0.3977 C   0  0  0  0  0  0  0  0  0  0  0  0
    1.0535   -1.1890    0.6976 C   0  0  0  0  0  0  0  0  0  0  0  0
    1.9200   -1.6644   -0.3899 C   0  0  0  0  0  0  0  0  0  0  0  0
    2.9015   -2.3654   -0.1699 O   0  0  0  0  0  0  0  0  0  0  0  0
    1.5612   -1.2624   -1.7549 C   0  0  0  0  0  0  0  0  0  0  0  0
    2.3209   -1.6558   -2.8607 C   0  0  0  0  0  0  0  0  0  0  0  0
    1.9486   -1.2530   -4.1402 C   0  0  0  0  0  0  0  0  0  0  0  0
    0.8179   -0.4577   -4.3071 C   0  0  0  0  0  0  0  0  0  0  0  0
    0.0520   -0.0599   -3.2140 C   0  0  0  0  0  0  0  0  0  0  0  0
    0.4299   -0.4676   -1.9332 C   0  0  0  0  0  0  0  0  0  0  0  0
   -0.3599   -0.0504   -0.8901 O   0  0  0  0  0  0  0  0  0  0  0  0
    0.4884   -0.0836   -5.5764 O   0  0  0  0  0  0  0  0  0  0  0  0
    3.4407   -2.4358   -2.7558 O   0  0  0  0  0  0  0  0  0  0  0  0
   -3.5051    1.5135    4.3729 O   0  0  0  0  0  0  0  0  0  0  0  0
   -2.7148   -0.3944    0.3261 H   0  0  0  0  0  0  0  0  0  0  0  0
   -4.2597    0.4443    2.0390 H   0  0  0  0  0  0  0  0  0  0  0  0
   -0.9303    1.5365    4.5336 H   0  0  0  0  0  0  0  0  0  0  0  0
    0.6371    0.7125    2.8208 H   0  0  0  0  0  0  0  0  0  0  0  0
    1.3152   -1.4972    1.7016 H   0  0  0  0  0  0  0  0  0  0  0  0
    2.5370   -1.5566   -5.0015 H   0  0  0  0  0  0  0  0  0  0  0  0
   -0.8299    0.5601   -3.3403 H   0  0  0  0  0  0  0  0  0  0  0  0
   -0.3061    0.4747   -5.5511 H   0  0  0  0  0  0  0  0  0  0  0  0
    3.5838   -2.6441   -1.8051 H   0  0  0  0  0  0  0  0  0  0  0  0
   -4.4269    1.3996    4.0891 H   0  0  0  0  0  0  0  0  0  0  0  0
  1  2  2  0
  2  3  1  0
  3  4  2  0
  4  5  1  0
  5  6  2  0
  6  7  1  0
  7  8  2  0
  8  9  1  0
  9 10  2  0
  9 11  1  0
 11 12  2  0
 12 13  1  0
 13 14  2  0
 14 15  1  0
 15 16  2  0
 16 17  1  0
 14 18  1  0
 12 19  1  0
  3 20  1  0
  6  1  1  0
 17  7  1  0
 16 11  1  0
  1 21  1  0
  2 22  1  0
  4 23  1  0
  5 24  1  0
  8 25  1  0
 13 26  1  0
 15 27  1  0
 18 28  1  0
 19 29  1  0
 20 30  1  0
M  END
>  <cat1>  (31) 
1

$$$$
CID_2720-Chlorothiazide
     RDKit          3D

 23 24  0  0  0  0  0  0  0  0999 V2000
   -1.1812    1.4302    0.9292 C   0  0  0  0  0  0  0  0  0  0  0  0
   -1.5888    0.7232   -0.2075 C   0  0  0  0  0  0  0  0  0  0  0  0
   -0.7067   -0.2080   -0.7434 C   0  0  0  0  0  0  0  0  0  0  0  0
    0.5538   -0.4512   -0.1856 C   0  0  0  0  0  0  0  0  0  0  0  0
    0.9453    0.2643    0.9505 C   0  0  0  0  0  0  0  0  0  0  0  0
    0.0787    1.2069    1.5108 C   0  0  0  0  0  0  0  0  0  0  0  0
    0.4632    2.1425    2.9101 Cl  0  0  0  0  0  0  0  0  0  0  0  0
    2.5264   -0.0171    1.6790 S   0  0  0  0  0  0  0  0  0  0  0  0
    2.3343   -0.6485    2.9622 O   0  0  0  0  0  0  0  0  0  0  0  0
    3.3396    1.1580    1.4782 O   0  0  0  0  0  0  0  0  0  0  0  0
    3.2366   -1.2016    0.7182 N   0  0  0  0  0  0  0  0  0  0  0  0
   -1.2013   -1.1143   -2.1817 S   0  0  0  0  0  0  0  0  0  0  0  0
   -0.2737   -0.7080   -3.2193 O   0  0  0  0  0  0  0  0  0  0  0  0
   -1.2691   -2.4967   -1.7499 O   0  0  0  0  0  0  0  0  0  0  0  0
   -2.6872   -0.6238   -2.5912 N   0  0  0  0  0  0  0  0  0  0  0  0
   -3.2677    0.2771   -1.8877 C   0  0  0  0  0  0  0  0  0  0  0  0
   -2.8387    0.9477   -0.7809 N   0  0  0  0  0  0  0  0  0  0  0  0
   -1.8455    2.1675    1.3767 H   0  0  0  0  0  0  0  0  0  0  0  0
    1.2037   -1.1918   -0.6469 H   0  0  0  0  0  0  0  0  0  0  0  0
    3.4105   -2.0360    1.2826 H   0  0  0  0  0  0  0  0  0  0  0  0
    4.0842   -0.8255    0.2881 H   0  0  0  0  0  0  0  0  0  0  0  0
   -4.2813    0.5958   -2.1864 H   0  0  0  0  0  0  0  0  0  0  0  0
   -3.4456    1.6377   -0.3521 H   0  0  0  0  0  0  0  0  0  0  0  0
  1  2  2  0
  2  3  1  0
  3  4  2  0
  4  5  1  0
  5  6  2  0
  6  7  1  0
  5  8  1  0
  8  9  2  0
  8 10  2  0
  8 11  1  0
  3 12  1  0
 12 13  2  0
 12 14  2  0
 12 15  1  0
 15 16  2  0
 16 17  1  0
  6  1  1  0
 17  2  1  0
  1 18  1  0
  4 19  1  0
 11 20  1  0
 11 21  1  0
 16 22  1  0
 17 23  1  0
M  END
>  <cat1>  (32) 
0

$$$$
CID_6307-Quinethazone
     RDKit          3D

 30 31  0  0  0  0  0  0  0  0999 V2000
   -3.4395   -1.9639    1.7876 C   0  0  0  0  0  0  0  0  0  0  0  0
   -2.2731   -0.9879    1.7096 C   0  0  0  0  0  0  0  0  0  0  0  0
   -0.9096   -1.6948    1.7760 C   0  0  0  0  0  0  0  0  0  0  0  0
    0.1710   -0.7256    1.8782 N   0  0  0  0  0  0  0  0  0  0  0  0
    0.5545   -0.0977    0.6858 C   0  0  0  0  0  0  0  0  0  0  0  0
    1.2472    1.1165    0.7169 C   0  0  0  0  0  0  0  0  0  0  0  0
    1.6933    1.7245   -0.4668 C   0  0  0  0  0  0  0  0  0  0  0  0
    1.4723    1.0963   -1.6960 C   0  0  0  0  0  0  0  0  0  0  0  0
    0.8213   -0.1413   -1.7416 C   0  0  0  0  0  0  0  0  0  0  0  0
    0.3819   -0.7289   -0.5515 C   0  0  0  0  0  0  0  0  0  0  0  0
   -0.2479   -2.0642   -0.5620 C   0  0  0  0  0  0  0  0  0  0  0  0
   -0.3737   -2.7143   -1.5918 O   0  0  0  0  0  0  0  0  0  0  0  0
   -0.6592   -2.5457    0.6497 N   0  0  0  0  0  0  0  0  0  0  0  0
    2.0304    1.8595   -3.1822 S   0  0  0  0  0  0  0  0  0  0  0  0
    3.4736    1.8470   -3.1980 O   0  0  0  0  0  0  0  0  0  0  0  0
    1.2395    3.0445   -3.4156 O   0  0  0  0  0  0  0  0  0  0  0  0
    1.5811    0.8007   -4.4105 N   0  0  0  0  0  0  0  0  0  0  0  0
    2.5060    3.2398   -0.3035 Cl  0  0  0  0  0  0  0  0  0  0  0  0
   -3.3912   -2.5606    2.7040 H   0  0  0  0  0  0  0  0  0  0  0  0
   -3.4473   -2.6452    0.9313 H   0  0  0  0  0  0  0  0  0  0  0  0
   -4.3879   -1.4173    1.7892 H   0  0  0  0  0  0  0  0  0  0  0  0
   -2.3567   -0.2791    2.5430 H   0  0  0  0  0  0  0  0  0  0  0  0
   -2.3675   -0.3997    0.7886 H   0  0  0  0  0  0  0  0  0  0  0  0
   -0.8776   -2.3335    2.6659 H   0  0  0  0  0  0  0  0  0  0  0  0
    0.0588   -0.0831    2.6572 H   0  0  0  0  0  0  0  0  0  0  0  0
    1.4432    1.5995    1.6718 H   0  0  0  0  0  0  0  0  0  0  0  0
    0.6612   -0.6670   -2.6797 H   0  0  0  0  0  0  0  0  0  0  0  0
   -1.1253   -3.4407    0.6039 H   0  0  0  0  0  0  0  0  0  0  0  0
    0.9268    1.2695   -5.0394 H   0  0  0  0  0  0  0  0  0  0  0  0
    2.4189    0.4553   -4.8824 H   0  0  0  0  0  0  0  0  0  0  0  0
  1  2  1  0
  2  3  1  0
  3  4  1  0
  4  5  1  0
  5  6  2  0
  6  7  1  0
  7  8  2  0
  8  9  1  0
  9 10  2  0
 10 11  1  0
 11 12  2  0
 11 13  1  0
  8 14  1  0
 14 15  2  0
 14 16  2  0
 14 17  1  0
  7 18  1  0
 13  3  1  0
 10  5  1  0
  1 19  1  0
  1 20  1  0
  1 21  1  0
  2 22  1  0
  2 23  1  0
  3 24  1  0
  4 25  1  0
  6 26  1  0
  9 27  1  0
 13 28  1  0
 17 29  1  0
 17 30  1  0
M  END
>  <cat1>  (33) 
0

$$$$
CID_8406-2-Carboxybenzaldehyde
     RDKit          3D

 17 17  0  0  0  0  0  0  0  0999 V2000
   -0.8514    1.8173   -1.4580 C   0  0  0  0  0  0  0  0  0  0  0  0
    0.5256    1.9707   -1.3333 C   0  0  0  0  0  0  0  0  0  0  0  0
    1.2603    1.0646   -0.5664 C   0  0  0  0  0  0  0  0  0  0  0  0
    0.6241   -0.0104    0.0821 C   0  0  0  0  0  0  0  0  0  0  0  0
   -0.7636   -0.1680   -0.0511 C   0  0  0  0  0  0  0  0  0  0  0  0
   -1.4933    0.7542   -0.8216 C   0  0  0  0  0  0  0  0  0  0  0  0
   -1.5150   -1.2952    0.5499 C   0  0  0  0  0  0  0  0  0  0  0  0
   -2.7395   -1.3531    0.4819 O   0  0  0  0  0  0  0  0  0  0  0  0
    1.4413   -0.9110    0.9271 C   0  0  0  0  0  0  0  0  0  0  0  0
    1.0697   -1.5183    1.9112 O   0  0  0  0  0  0  0  0  0  0  0  0
    2.7042   -1.0176    0.4773 O   0  0  0  0  0  0  0  0  0  0  0  0
   -1.4288    2.5221   -2.0524 H   0  0  0  0  0  0  0  0  0  0  0  0
    1.0284    2.7987   -1.8283 H   0  0  0  0  0  0  0  0  0  0  0  0
    2.3348    1.2109   -0.4700 H   0  0  0  0  0  0  0  0  0  0  0  0
   -2.5713    0.6425   -0.9351 H   0  0  0  0  0  0  0  0  0  0  0  0
   -0.9561   -2.1034    1.0406 H   0  0  0  0  0  0  0  0  0  0  0  0
    3.1373   -1.6354    1.1044 H   0  0  0  0  0  0  0  0  0  0  0  0
  1  2  2  0
  2  3  1  0
  3  4  2  0
  4  5  1  0
  5  6  2  0
  5  7  1  0
  7  8  2  0
  4  9  1  0
  9 10  2  0
  9 11  1  0
  6  1  1  0
  1 12  1  0
  2 13  1  0
  3 14  1  0
  6 15  1  0
  7 16  1  0
 11 17  1  0
M  END
>  <cat1>  (34) 
0

$$$$
CID_5429-Theobromine
     RDKit          3D

 21 22  0  0  0  0  0  0  0  0999 V2000
   -2.4388    0.6169   -1.8842 C   0  0  0  0  0  0  0  0  0  0  0  0
   -1.5301    0.0121   -0.9441 N   0  0  0  0  0  0  0  0  0  0  0  0
   -1.7859   -1.0776   -0.1533 C   0  0  0  0  0  0  0  0  0  0  0  0
   -0.7492   -1.3879    0.6011 N   0  0  0  0  0  0  0  0  0  0  0  0
    0.1951   -0.4623    0.2762 C   0  0  0  0  0  0  0  0  0  0  0  0
   -0.2551    0.4121   -0.6711 C   0  0  0  0  0  0  0  0  0  0  0  0
    0.5415    1.4717   -1.1787 C   0  0  0  0  0  0  0  0  0  0  0  0
    0.1817    2.2796   -2.0271 O   0  0  0  0  0  0  0  0  0  0  0  0
    1.7943    1.5039   -0.6080 N   0  0  0  0  0  0  0  0  0  0  0  0
    2.3024    0.6465    0.3525 C   0  0  0  0  0  0  0  0  0  0  0  0
    3.4528    0.8218    0.7544 O   0  0  0  0  0  0  0  0  0  0  0  0
    1.4652   -0.3689    0.8037 N   0  0  0  0  0  0  0  0  0  0  0  0
    1.9163   -1.3114    1.8085 C   0  0  0  0  0  0  0  0  0  0  0  0
   -1.9914    0.5695   -2.8801 H   0  0  0  0  0  0  0  0  0  0  0  0
   -3.3858    0.0712   -1.8788 H   0  0  0  0  0  0  0  0  0  0  0  0
   -2.6090    1.6542   -1.5853 H   0  0  0  0  0  0  0  0  0  0  0  0
   -2.7328   -1.6029   -0.1650 H   0  0  0  0  0  0  0  0  0  0  0  0
    2.4166    2.2318   -0.9211 H   0  0  0  0  0  0  0  0  0  0  0  0
    1.2601   -1.2447    2.6819 H   0  0  0  0  0  0  0  0  0  0  0  0
    2.9423   -1.1041    2.1242 H   0  0  0  0  0  0  0  0  0  0  0  0
    1.8744   -2.3235    1.3940 H   0  0  0  0  0  0  0  0  0  0  0  0
  1  2  1  0
  2  3  1  0
  3  4  2  0
  4  5  1  0
  5  6  2  0
  6  7  1  0
  7  8  2  0
  7  9  1  0
  9 10  1  0
 10 11  2  0
 10 12  1  0
 12 13  1  0
  6  2  1  0
 12  5  1  0
  1 14  1  0
  1 15  1  0
  1 16  1  0
  3 17  1  0
  9 18  1  0
 13 19  1  0
 13 20  1  0
 13 21  1  0
M  END
>  <cat1>  (35) 
0

$$$$
CID_3869-Labetalol
     RDKit          3D

 48 49  0  0  0  0  0  0  0  0999 V2000
   -0.0641    2.4216   -0.4971 C   0  0  0  0  0  0  0  0  0  0  0  0
    0.4097    1.3804    0.5231 C   0  0  0  0  0  0  0  0  0  0  0  0
   -0.6975    1.0948    1.5601 C   0  0  0  0  0  0  0  0  0  0  0  0
   -0.3030    0.1071    2.6659 C   0  0  0  0  0  0  0  0  0  0  0  0
    0.7677    0.6309    3.5913 C   0  0  0  0  0  0  0  0  0  0  0  0
    0.4572    1.5774    4.5770 C   0  0  0  0  0  0  0  0  0  0  0  0
    1.4513    2.0682    5.4249 C   0  0  0  0  0  0  0  0  0  0  0  0
    2.7642    1.6193    5.2948 C   0  0  0  0  0  0  0  0  0  0  0  0
    3.0843    0.6797    4.3168 C   0  0  0  0  0  0  0  0  0  0  0  0
    2.0912    0.1878    3.4685 C   0  0  0  0  0  0  0  0  0  0  0  0
    0.9550    0.1692   -0.1182 N   0  0  0  0  0  0  0  0  0  0  0  0
    0.0187   -0.5317   -1.0190 C   0  0  0  0  0  0  0  0  0  0  0  0
    0.5490   -1.9434   -1.3711 C   0  0  0  0  0  0  0  0  0  0  0  0
   -0.3118   -2.6141   -2.4216 C   0  0  0  0  0  0  0  0  0  0  0  0
   -1.4491   -3.3412   -2.0336 C   0  0  0  0  0  0  0  0  0  0  0  0
   -2.2649   -3.9584   -2.9947 C   0  0  0  0  0  0  0  0  0  0  0  0
   -1.9511   -3.8488   -4.3505 C   0  0  0  0  0  0  0  0  0  0  0  0
   -0.8280   -3.1256   -4.7493 C   0  0  0  0  0  0  0  0  0  0  0  0
   -0.0173   -2.5112   -3.7900 C   0  0  0  0  0  0  0  0  0  0  0  0
   -2.7606   -4.4074   -5.2974 O   0  0  0  0  0  0  0  0  0  0  0  0
   -3.4328   -4.7440   -2.5364 C   0  0  0  0  0  0  0  0  0  0  0  0
   -3.6144   -5.9107   -2.8520 O   0  0  0  0  0  0  0  0  0  0  0  0
   -4.2997   -4.0825   -1.7069 N   0  0  0  0  0  0  0  0  0  0  0  0
    1.9027   -1.8481   -1.8267 O   0  0  0  0  0  0  0  0  0  0  0  0
   -0.9617    2.0933   -1.0315 H   0  0  0  0  0  0  0  0  0  0  0  0
   -0.3052    3.3651    0.0050 H   0  0  0  0  0  0  0  0  0  0  0  0
    0.7176    2.6333   -1.2349 H   0  0  0  0  0  0  0  0  0  0  0  0
    1.2498    1.8389    1.0596 H   0  0  0  0  0  0  0  0  0  0  0  0
   -1.0035    2.0449    2.0181 H   0  0  0  0  0  0  0  0  0  0  0  0
   -1.5917    0.7085    1.0561 H   0  0  0  0  0  0  0  0  0  0  0  0
    0.0040   -0.8536    2.2350 H   0  0  0  0  0  0  0  0  0  0  0  0
   -1.1919   -0.1196    3.2696 H   0  0  0  0  0  0  0  0  0  0  0  0
   -0.5631    1.9361    4.6912 H   0  0  0  0  0  0  0  0  0  0  0  0
    1.2010    2.8003    6.1881 H   0  0  0  0  0  0  0  0  0  0  0  0
    3.5376    2.0011    5.9558 H   0  0  0  0  0  0  0  0  0  0  0  0
    4.1078    0.3295    4.2136 H   0  0  0  0  0  0  0  0  0  0  0  0
    2.3553   -0.5405    2.7048 H   0  0  0  0  0  0  0  0  0  0  0  0
    1.7586    0.4573   -0.6823 H   0  0  0  0  0  0  0  0  0  0  0  0
   -0.9732   -0.6376   -0.5680 H   0  0  0  0  0  0  0  0  0  0  0  0
   -0.0918    0.0560   -1.9386 H   0  0  0  0  0  0  0  0  0  0  0  0
    0.5672   -2.5722   -0.4716 H   0  0  0  0  0  0  0  0  0  0  0  0
   -1.6897   -3.4532   -0.9780 H   0  0  0  0  0  0  0  0  0  0  0  0
   -0.5723   -3.0198   -5.7995 H   0  0  0  0  0  0  0  0  0  0  0  0
    0.8594   -1.9527   -4.1160 H   0  0  0  0  0  0  0  0  0  0  0  0
   -2.2781   -4.4630   -6.1381 H   0  0  0  0  0  0  0  0  0  0  0  0
   -4.3041   -3.0734   -1.6642 H   0  0  0  0  0  0  0  0  0  0  0  0
   -5.1682   -4.5652   -1.5146 H   0  0  0  0  0  0  0  0  0  0  0  0
    2.3985   -1.5342   -1.0490 H   0  0  0  0  0  0  0  0  0  0  0  0
  1  2  1  0
  2  3  1  0
  3  4  1  0
  4  5  1  0
  5  6  2  0
  6  7  1  0
  7  8  2  0
  8  9  1  0
  9 10  2  0
  2 11  1  0
 11 12  1  0
 12 13  1  0
 13 14  1  0
 14 15  2  0
 15 16  1  0
 16 17  2  0
 17 18  1  0
 18 19  2  0
 17 20  1  0
 16 21  1  0
 21 22  2  0
 21 23  1  0
 13 24  1  0
 10  5  1  0
 19 14  1  0
  1 25  1  0
  1 26  1  0
  1 27  1  0
  2 28  1  0
  3 29  1  0
  3 30  1  0
  4 31  1  0
  4 32  1  0
  6 33  1  0
  7 34  1  0
  8 35  1  0
  9 36  1  0
 10 37  1  0
 11 38  1  0
 12 39  1  0
 12 40  1  0
 13 41  1  0
 15 42  1  0
 18 43  1  0
 19 44  1  0
 20 45  1  0
 23 46  1  0
 23 47  1  0
 24 48  1  0
M  END
>  <cat1>  (36) 
0

$$$$
CID_77553-3-Acetylcoumarin
     RDKit          3D

 22 23  0  0  0  0  0  0  0  0999 V2000
   -2.5533    1.4549   -2.6718 C   0  0  0  0  0  0  0  0  0  0  0  0
   -1.3367    1.7510   -1.8335 C   0  0  0  0  0  0  0  0  0  0  0  0
   -0.8990    2.9018   -1.7597 O   0  0  0  0  0  0  0  0  0  0  0  0
   -0.6825    0.6404   -1.0772 C   0  0  0  0  0  0  0  0  0  0  0  0
    0.0367    0.9948    0.0008 C   0  0  0  0  0  0  0  0  0  0  0  0
    0.6962   -0.0122    0.8144 C   0  0  0  0  0  0  0  0  0  0  0  0
    1.4582    0.3186    1.9365 C   0  0  0  0  0  0  0  0  0  0  0  0
    2.0674   -0.6902    2.6898 C   0  0  0  0  0  0  0  0  0  0  0  0
    1.9170   -2.0304    2.3255 C   0  0  0  0  0  0  0  0  0  0  0  0
    1.1578   -2.3668    1.2065 C   0  0  0  0  0  0  0  0  0  0  0  0
    0.5580   -1.3511    0.4664 C   0  0  0  0  0  0  0  0  0  0  0  0
   -0.1977   -1.7249   -0.6584 O   0  0  0  0  0  0  0  0  0  0  0  0
   -0.8166   -0.7794   -1.4713 C   0  0  0  0  0  0  0  0  0  0  0  0
   -1.4371   -1.1268   -2.4698 O   0  0  0  0  0  0  0  0  0  0  0  0
   -3.1206    2.3798   -2.8161 H   0  0  0  0  0  0  0  0  0  0  0  0
   -3.2123    0.7471   -2.1622 H   0  0  0  0  0  0  0  0  0  0  0  0
   -2.2493    1.0719   -3.6487 H   0  0  0  0  0  0  0  0  0  0  0  0
    0.1443    2.0349    0.2980 H   0  0  0  0  0  0  0  0  0  0  0  0
    1.5875    1.3561    2.2363 H   0  0  0  0  0  0  0  0  0  0  0  0
    2.6614   -0.4301    3.5632 H   0  0  0  0  0  0  0  0  0  0  0  0
    2.3933   -2.8107    2.9144 H   0  0  0  0  0  0  0  0  0  0  0  0
    1.0371   -3.4061    0.9153 H   0  0  0  0  0  0  0  0  0  0  0  0
  1  2  1  0
  2  3  2  0
  2  4  1  0
  4  5  2  0
  5  6  1  0
  6  7  2  0
  7  8  1  0
  8  9  2  0
  9 10  1  0
 10 11  2  0
 11 12  1  0
 12 13  1  0
 13 14  2  0
 13  4  1  0
 11  6  1  0
  1 15  1  0
  1 16  1  0
  1 17  1  0
  5 18  1  0
  7 19  1  0
  8 20  1  0
  9 21  1  0
 10 22  1  0
M  END
>  <cat1>  (37) 
0

$$$$
CID_5802-5-Bromouracil
     RDKit          3D

 12 12  0  0  0  0  0  0  0  0999 V2000
    0.2890    1.5618    0.3851 C   0  0  0  0  0  0  0  0  0  0  0  0
    0.3992    1.1102    1.6410 C   0  0  0  0  0  0  0  0  0  0  0  0
    0.6109   -0.3562    1.8327 C   0  0  0  0  0  0  0  0  0  0  0  0
    0.7250   -0.8763    2.9383 O   0  0  0  0  0  0  0  0  0  0  0  0
    0.6727   -1.1085    0.6869 N   0  0  0  0  0  0  0  0  0  0  0  0
    0.5580   -0.6300   -0.5870 C   0  0  0  0  0  0  0  0  0  0  0  0
    0.6221   -1.3557   -1.5723 O   0  0  0  0  0  0  0  0  0  0  0  0
    0.3657    0.7206   -0.6923 N   0  0  0  0  0  0  0  0  0  0  0  0
    0.2997    2.2245    3.1262 Br  0  0  0  0  0  0  0  0  0  0  0  0
    0.1340    2.6122    0.1582 H   0  0  0  0  0  0  0  0  0  0  0  0
    0.8151   -2.1007    0.7943 H   0  0  0  0  0  0  0  0  0  0  0  0
    0.2800    1.0805   -1.6371 H   0  0  0  0  0  0  0  0  0  0  0  0
  1  2  2  0
  2  3  1  0
  3  4  2  0
  3  5  1  0
  5  6  1  0
  6  7  2  0
  6  8  1  0
  2  9  1  0
  8  1  1  0
  1 10  1  0
  5 11  1  0
  8 12  1  0
M  END
>  <cat1>  (38) 
0

$$$$
CID_3366-Flucytosine
     RDKit          3D

 13 13  0  0  0  0  0  0  0  0999 V2000
   -0.9143    0.8236    1.7653 C   0  0  0  0  0  0  0  0  0  0  0  0
   -0.5954   -0.3157    2.2843 N   0  0  0  0  0  0  0  0  0  0  0  0
    0.4371   -1.0105    1.7007 C   0  0  0  0  0  0  0  0  0  0  0  0
    0.8327   -2.0923    2.1235 O   0  0  0  0  0  0  0  0  0  0  0  0
    1.0472   -0.4656    0.5916 N   0  0  0  0  0  0  0  0  0  0  0  0
    0.7263    0.7350    0.0275 C   0  0  0  0  0  0  0  0  0  0  0  0
   -0.2679    1.4276    0.5972 C   0  0  0  0  0  0  0  0  0  0  0  0
   -0.7186    2.6168    0.1630 F   0  0  0  0  0  0  0  0  0  0  0  0
    1.4237    1.1658   -1.0772 N   0  0  0  0  0  0  0  0  0  0  0  0
   -1.7345    1.4096    2.2096 H   0  0  0  0  0  0  0  0  0  0  0  0
    1.8213   -1.0018    0.2290 H   0  0  0  0  0  0  0  0  0  0  0  0
    0.9621    1.9340   -1.5633 H   0  0  0  0  0  0  0  0  0  0  0  0
    1.6670    0.4100   -1.7111 H   0  0  0  0  0  0  0  0  0  0  0  0
  1  2  2  0
  2  3  1  0
  3  4  2  0
  3  5  1  0
  5  6  1  0
  6  7  2  0
  7  8  1  0
  6  9  1  0
  7  1  1  0
  1 10  1  0
  5 11  1  0
  9 12  1  0
  9 13  1  0
M  END
>  <cat1>  (39) 
0

$$$$
CID_3394-Flurbiprofen
     RDKit          3D

 31 32  0  0  0  0  0  0  0  0999 V2000
   -3.1425   -0.5548    2.5493 C   0  0  0  0  0  0  0  0  0  0  0  0
   -3.1385   -0.7725    1.0344 C   0  0  0  0  0  0  0  0  0  0  0  0
   -1.7437   -0.6525    0.4480 C   0  0  0  0  0  0  0  0  0  0  0  0
   -1.0161    0.5422    0.5253 C   0  0  0  0  0  0  0  0  0  0  0  0
    0.2653    0.6286   -0.0227 C   0  0  0  0  0  0  0  0  0  0  0  0
    0.8718   -0.4601   -0.6653 C   0  0  0  0  0  0  0  0  0  0  0  0
    0.1318   -1.6522   -0.7426 C   0  0  0  0  0  0  0  0  0  0  0  0
   -1.1546   -1.7483   -0.1963 C   0  0  0  0  0  0  0  0  0  0  0  0
    2.2245   -0.3715   -1.2448 C   0  0  0  0  0  0  0  0  0  0  0  0
    2.5798    0.6785   -2.1084 C   0  0  0  0  0  0  0  0  0  0  0  0
    3.8597    0.7564   -2.6652 C   0  0  0  0  0  0  0  0  0  0  0  0
    4.8100   -0.2162   -2.3677 C   0  0  0  0  0  0  0  0  0  0  0  0
    4.4822   -1.2649   -1.5130 C   0  0  0  0  0  0  0  0  0  0  0  0
    3.2016   -1.3411   -0.9575 C   0  0  0  0  0  0  0  0  0  0  0  0
    0.9161    1.7974    0.0907 F   0  0  0  0  0  0  0  0  0  0  0  0
   -4.1155    0.1740    0.3614 C   0  0  0  0  0  0  0  0  0  0  0  0
   -4.4352    1.2906    0.7366 O   0  0  0  0  0  0  0  0  0  0  0  0
   -4.6315   -0.3328   -0.7782 O   0  0  0  0  0  0  0  0  0  0  0  0
   -4.1506   -0.6941    2.9556 H   0  0  0  0  0  0  0  0  0  0  0  0
   -2.4741   -1.2646    3.0490 H   0  0  0  0  0  0  0  0  0  0  0  0
   -2.8207    0.4566    2.8219 H   0  0  0  0  0  0  0  0  0  0  0  0
   -3.5205   -1.7893    0.8689 H   0  0  0  0  0  0  0  0  0  0  0  0
   -1.4299    1.4243    1.0083 H   0  0  0  0  0  0  0  0  0  0  0  0
    0.5500   -2.5213   -1.2478 H   0  0  0  0  0  0  0  0  0  0  0  0
   -1.6921   -2.6908   -0.2865 H   0  0  0  0  0  0  0  0  0  0  0  0
    1.8539    1.4504   -2.3577 H   0  0  0  0  0  0  0  0  0  0  0  0
    4.1114    1.5792   -3.3292 H   0  0  0  0  0  0  0  0  0  0  0  0
    5.8058   -0.1544   -2.7984 H   0  0  0  0  0  0  0  0  0  0  0  0
    5.2233   -2.0229   -1.2731 H   0  0  0  0  0  0  0  0  0  0  0  0
    2.9750   -2.1632   -0.2816 H   0  0  0  0  0  0  0  0  0  0  0  0
   -5.2038    0.3859   -1.1201 H   0  0  0  0  0  0  0  0  0  0  0  0
  1  2  1  0
  2  3  1  0
  3  4  2  0
  4  5  1  0
  5  6  2  0
  6  7  1  0
  7  8  2  0
  6  9  1  0
  9 10  2  0
 10 11  1  0
 11 12  2  0
 12 13  1  0
 13 14  2  0
  5 15  1  0
  2 16  1  0
 16 17  2  0
 16 18  1  0
  8  3  1  0
 14  9  1  0
  1 19  1  0
  1 20  1  0
  1 21  1  0
  2 22  1  0
  4 23  1  0
  7 24  1  0
  8 25  1  0
 10 26  1  0
 11 27  1  0
 12 28  1  0
 13 29  1  0
 14 30  1  0
 18 31  1  0
M  END
>  <cat1>  (40) 
0

$$$$
CID_4756-Phenazopyridine
     RDKit          3D

 27 28  0  0  0  0  0  0  0  0999 V2000
   -2.9829   -0.1922    1.3695 C   0  0  0  0  0  0  0  0  0  0  0  0
   -2.2457   -1.2706    1.8563 C   0  0  0  0  0  0  0  0  0  0  0  0
   -0.8732   -1.1333    2.0755 C   0  0  0  0  0  0  0  0  0  0  0  0
   -0.2235    0.0747    1.7956 C   0  0  0  0  0  0  0  0  0  0  0  0
   -0.9802    1.1588    1.3356 C   0  0  0  0  0  0  0  0  0  0  0  0
   -2.3519    1.0239    1.1119 C   0  0  0  0  0  0  0  0  0  0  0  0
    1.1543    0.2037    2.0602 N   0  0  0  0  0  0  0  0  0  0  0  0
    1.9928    0.1985    1.1210 N   0  0  0  0  0  0  0  0  0  0  0  0
    1.5891   -0.0720   -0.2042 C   0  0  0  0  0  0  0  0  0  0  0  0
    1.4804    0.9444   -1.1665 C   0  0  0  0  0  0  0  0  0  0  0  0
    1.1452    0.7145   -2.4536 N   0  0  0  0  0  0  0  0  0  0  0  0
    0.9286   -0.5542   -2.8370 C   0  0  0  0  0  0  0  0  0  0  0  0
    1.0445   -1.6283   -1.9627 C   0  0  0  0  0  0  0  0  0  0  0  0
    1.3913   -1.3835   -0.6366 C   0  0  0  0  0  0  0  0  0  0  0  0
    0.5750   -0.7766   -4.1720 N   0  0  0  0  0  0  0  0  0  0  0  0
    1.6705    2.2918   -0.8329 N   0  0  0  0  0  0  0  0  0  0  0  0
   -4.0514   -0.2958    1.1976 H   0  0  0  0  0  0  0  0  0  0  0  0
   -2.7391   -2.2148    2.0708 H   0  0  0  0  0  0  0  0  0  0  0  0
   -0.3020   -1.9704    2.4676 H   0  0  0  0  0  0  0  0  0  0  0  0
   -0.4921    2.1106    1.1389 H   0  0  0  0  0  0  0  0  0  0  0  0
   -2.9241    1.8691    0.7382 H   0  0  0  0  0  0  0  0  0  0  0  0
    0.8731   -2.6446   -2.2994 H   0  0  0  0  0  0  0  0  0  0  0  0
    1.5017   -2.2068    0.0623 H   0  0  0  0  0  0  0  0  0  0  0  0
    1.2489   -1.3970   -4.6090 H   0  0  0  0  0  0  0  0  0  0  0  0
   -0.3381   -1.2185   -4.2131 H   0  0  0  0  0  0  0  0  0  0  0  0
    2.5349    2.4200   -0.3186 H   0  0  0  0  0  0  0  0  0  0  0  0
    1.6359    2.8184   -1.7019 H   0  0  0  0  0  0  0  0  0  0  0  0
  1  2  2  0
  2  3  1  0
  3  4  2  0
  4  5  1  0
  5  6  2  0
  4  7  1  0
  7  8  2  3
  8  9  1  0
  9 10  2  0
 10 11  1  0
 11 12  2  0
 12 13  1  0
 13 14  2  0
 12 15  1  0
 10 16  1  0
  6  1  1  0
 14  9  1  0
  1 17  1  0
  2 18  1  0
  3 19  1  0
  5 20  1  0
  6 21  1  0
 13 22  1  0
 14 23  1  0
 15 24  1  0
 15 25  1  0
 16 26  1  0
 16 27  1  0
M  END
>  <cat1>  (41) 
0

$$$$
CID_6082-Methoxamine
     RDKit          3D

 32 32  0  0  0  0  0  0  0  0999 V2000
   -3.2481    0.0577   -1.7710 C   0  0  0  0  0  0  0  0  0  0  0  0
   -1.9668    0.3131   -0.9685 C   0  0  0  0  0  0  0  0  0  0  0  0
   -0.8211   -0.6235   -1.4703 C   0  0  0  0  0  0  0  0  0  0  0  0
    0.3437   -0.7115   -0.4908 C   0  0  0  0  0  0  0  0  0  0  0  0
    1.4375    0.1699   -0.5027 C   0  0  0  0  0  0  0  0  0  0  0  0
    2.4700    0.0285    0.4283 C   0  0  0  0  0  0  0  0  0  0  0  0
    2.4019   -0.9663    1.4039 C   0  0  0  0  0  0  0  0  0  0  0  0
    1.3152   -1.8374    1.4542 C   0  0  0  0  0  0  0  0  0  0  0  0
    0.2946   -1.7081    0.5099 C   0  0  0  0  0  0  0  0  0  0  0  0
    1.3715   -2.7623    2.4596 O   0  0  0  0  0  0  0  0  0  0  0  0
    0.2967   -3.6889    2.5463 C   0  0  0  0  0  0  0  0  0  0  0  0
    1.4926    1.1129   -1.4987 O   0  0  0  0  0  0  0  0  0  0  0  0
    1.8308    2.4160   -1.0223 C   0  0  0  0  0  0  0  0  0  0  0  0
   -0.4279   -0.2348   -2.7934 O   0  0  0  0  0  0  0  0  0  0  0  0
   -1.6282    1.7463   -1.0850 N   0  0  0  0  0  0  0  0  0  0  0  0
   -4.0757    0.6701   -1.3954 H   0  0  0  0  0  0  0  0  0  0  0  0
   -3.5532   -0.9910   -1.6869 H   0  0  0  0  0  0  0  0  0  0  0  0
   -3.1150    0.2865   -2.8342 H   0  0  0  0  0  0  0  0  0  0  0  0
   -2.1788    0.0984    0.0857 H   0  0  0  0  0  0  0  0  0  0  0  0
   -1.2287   -1.6357   -1.5873 H   0  0  0  0  0  0  0  0  0  0  0  0
    3.3441    0.6711    0.3985 H   0  0  0  0  0  0  0  0  0  0  0  0
    3.2078   -1.0679    2.1265 H   0  0  0  0  0  0  0  0  0  0  0  0
   -0.5605   -2.3770    0.5275 H   0  0  0  0  0  0  0  0  0  0  0  0
    0.2327   -4.3053    1.6436 H   0  0  0  0  0  0  0  0  0  0  0  0
    0.4972   -4.3554    3.3907 H   0  0  0  0  0  0  0  0  0  0  0  0
   -0.6507   -3.1767    2.7444 H   0  0  0  0  0  0  0  0  0  0  0  0
    2.9155    2.5159   -0.9164 H   0  0  0  0  0  0  0  0  0  0  0  0
    1.5007    3.1400   -1.7734 H   0  0  0  0  0  0  0  0  0  0  0  0
    1.3244    2.6542   -0.0800 H   0  0  0  0  0  0  0  0  0  0  0  0
    0.3768    0.3074   -2.6814 H   0  0  0  0  0  0  0  0  0  0  0  0
   -1.3183    1.9072   -2.0459 H   0  0  0  0  0  0  0  0  0  0  0  0
   -2.4682    2.3084   -0.9603 H   0  0  0  0  0  0  0  0  0  0  0  0
  1  2  1  0
  2  3  1  0
  3  4  1  0
  4  5  2  0
  5  6  1  0
  6  7  2  0
  7  8  1  0
  8  9  2  0
  8 10  1  0
 10 11  1  0
  5 12  1  0
 12 13  1  0
  3 14  1  0
  2 15  1  0
  9  4  1  0
  1 16  1  0
  1 17  1  0
  1 18  1  0
  2 19  1  0
  3 20  1  0
  6 21  1  0
  7 22  1  0
  9 23  1  0
 11 24  1  0
 11 25  1  0
 11 26  1  0
 13 27  1  0
 13 28  1  0
 13 29  1  0
 14 30  1  0
 15 31  1  0
 15 32  1  0
M  END
>  <cat1>  (42) 
0

$$$$
b_CID_50942-Doxofylline
     RDKit          3D

 33 35  0  0  0  0  0  0  0  0999 V2000
   -0.6911    3.5314   -0.0978 C   0  0  0  0  0  0  0  0  0  0  0  0
    0.0700    2.3071    0.0721 N   0  0  0  0  0  0  0  0  0  0  0  0
   -0.2110    1.2088   -0.7042 C   0  0  0  0  0  0  0  0  0  0  0  0
    0.4953    0.0475   -0.5971 C   0  0  0  0  0  0  0  0  0  0  0  0
    1.5744   -0.1173    0.3168 C   0  0  0  0  0  0  0  0  0  0  0  0
    2.2611   -1.1333    0.3707 O   0  0  0  0  0  0  0  0  0  0  0  0
    1.7819    1.0076    1.1224 N   0  0  0  0  0  0  0  0  0  0  0  0
    1.0997    2.2353    1.0094 C   0  0  0  0  0  0  0  0  0  0  0  0
    1.4104    3.2027    1.7110 O   0  0  0  0  0  0  0  0  0  0  0  0
    2.8536    0.9510    2.0972 C   0  0  0  0  0  0  0  0  0  0  0  0
   -0.0797   -0.7966   -1.5073 N   0  0  0  0  0  0  0  0  0  0  0  0
   -1.0814   -0.0913   -2.1283 C   0  0  0  0  0  0  0  0  0  0  0  0
   -1.1848    1.1324   -1.6525 N   0  0  0  0  0  0  0  0  0  0  0  0
    0.2654   -2.1775   -1.7927 C   0  0  0  0  0  0  0  0  0  0  0  0
   -0.6632   -3.1836   -1.1085 C   0  0  0  0  0  0  0  0  0  0  0  0
   -1.9936   -3.1030   -1.6447 O   0  0  0  0  0  0  0  0  0  0  0  0
   -2.8334   -3.3318   -0.5128 C   0  0  0  0  0  0  0  0  0  0  0  0
   -2.0597   -2.7132    0.6206 C   0  0  0  0  0  0  0  0  0  0  0  0
   -0.6983   -3.0205    0.3154 O   0  0  0  0  0  0  0  0  0  0  0  0
   -0.5463    3.9023   -1.1175 H   0  0  0  0  0  0  0  0  0  0  0  0
   -0.3767    4.3081    0.6042 H   0  0  0  0  0  0  0  0  0  0  0  0
   -1.7521    3.3202    0.0688 H   0  0  0  0  0  0  0  0  0  0  0  0
    3.6978    1.5356    1.7177 H   0  0  0  0  0  0  0  0  0  0  0  0
    2.5213    1.3918    3.0426 H   0  0  0  0  0  0  0  0  0  0  0  0
    3.1856   -0.0731    2.2875 H   0  0  0  0  0  0  0  0  0  0  0  0
   -1.7036   -0.5218   -2.9037 H   0  0  0  0  0  0  0  0  0  0  0  0
    1.3011   -2.3386   -1.4851 H   0  0  0  0  0  0  0  0  0  0  0  0
    0.2162   -2.2928   -2.8819 H   0  0  0  0  0  0  0  0  0  0  0  0
   -0.2923   -4.1953   -1.3103 H   0  0  0  0  0  0  0  0  0  0  0  0
   -3.8178   -2.8821   -0.6628 H   0  0  0  0  0  0  0  0  0  0  0  0
   -2.9436   -4.4140   -0.3827 H   0  0  0  0  0  0  0  0  0  0  0  0
   -2.1671   -1.6235    0.6317 H   0  0  0  0  0  0  0  0  0  0  0  0
   -2.3349   -3.1102    1.6008 H   0  0  0  0  0  0  0  0  0  0  0  0
  1  2  1  0
  2  3  1  0
  3  4  2  0
  4  5  1  0
  5  6  2  0
  5  7  1  0
  7  8  1  0
  8  9  2  0
  7 10  1  0
  4 11  1  0
 11 12  1  0
 12 13  2  0
 11 14  1  0
 14 15  1  0
 15 16  1  0
 16 17  1  0
 17 18  1  0
 18 19  1  0
  8  2  1  0
 13  3  1  0
 19 15  1  0
  1 20  1  0
  1 21  1  0
  1 22  1  0
 10 23  1  0
 10 24  1  0
 10 25  1  0
 12 26  1  0
 14 27  1  0
 14 28  1  0
 15 29  1  0
 17 30  1  0
 17 31  1  0
 18 32  1  0
 18 33  1  0
M  END
>  <cat1>  (43) 
1

$$$$
b_CID_2722-Chloroxine
     RDKit          3D

 18 19  0  0  0  0  0  0  0  0999 V2000
   -0.4770    0.6408   -2.9961 C   0  0  0  0  0  0  0  0  0  0  0  0
   -0.9109    1.1962   -1.7993 C   0  0  0  0  0  0  0  0  0  0  0  0
   -0.4001    0.7430   -0.5613 C   0  0  0  0  0  0  0  0  0  0  0  0
    0.5634   -0.2923   -0.6037 C   0  0  0  0  0  0  0  0  0  0  0  0
    1.0865   -0.7607    0.6090 C   0  0  0  0  0  0  0  0  0  0  0  0
    0.6809   -0.2332    1.8387 C   0  0  0  0  0  0  0  0  0  0  0  0
   -0.2620    0.7805    1.8875 C   0  0  0  0  0  0  0  0  0  0  0  0
   -0.7988    1.2652    0.6961 C   0  0  0  0  0  0  0  0  0  0  0  0
   -1.9732    2.5334    0.8320 Cl  0  0  0  0  0  0  0  0  0  0  0  0
    1.3456   -0.8333    3.3142 Cl  0  0  0  0  0  0  0  0  0  0  0  0
    2.0271   -1.7704    0.5801 O   0  0  0  0  0  0  0  0  0  0  0  0
    0.9781   -0.8252   -1.7754 N   0  0  0  0  0  0  0  0  0  0  0  0
    0.4633   -0.3615   -2.9317 C   0  0  0  0  0  0  0  0  0  0  0  0
   -0.8637    0.9829   -3.9491 H   0  0  0  0  0  0  0  0  0  0  0  0
   -1.6542    1.9891   -1.8429 H   0  0  0  0  0  0  0  0  0  0  0  0
   -0.5783    1.1916    2.8425 H   0  0  0  0  0  0  0  0  0  0  0  0
    2.2823   -1.9743    1.4972 H   0  0  0  0  0  0  0  0  0  0  0  0
    0.8441   -0.8374   -3.8308 H   0  0  0  0  0  0  0  0  0  0  0  0
  1  2  2  0
  2  3  1  0
  3  4  2  0
  4  5  1  0
  5  6  2  0
  6  7  1  0
  7  8  2  0
  8  9  1  0
  6 10  1  0
  5 11  1  0
  4 12  1  0
 12 13  2  0
 13  1  1  0
  8  3  1  0
  1 14  1  0
  2 15  1  0
  7 16  1  0
 11 17  1  0
 13 18  1  0
M  END
>  <cat1>  (44) 
1

$$$$
CID_1-4-Benzodioxan-6-carboxaldehyde
     RDKit          3D

 31 30  0  0  0  0  0  0  0  0999 V2000
   -3.8286   -1.0731    1.1495 C   0  0  0  0  0  0  0  0  0  0  0  0
   -2.6220   -0.7837    0.3108 C   0  0  0  0  0  0  0  0  0  0  0  0
   -2.4783   -1.1513   -0.8456 O   0  0  0  0  0  0  0  0  0  0  0  0
   -1.7082   -0.0898    1.0302 O   0  0  0  0  0  0  0  0  0  0  0  0
   -0.5063    0.3972    0.3521 C   0  0  0  0  0  0  0  0  0  0  0  0
   -0.0053    1.5015    1.2835 C   0  0  0  0  0  0  0  0  0  0  0  0
    1.2662    2.0415    0.6812 C   0  0  0  0  0  0  0  0  0  0  0  0
    1.1120    2.7919   -0.3170 O   0  0  0  0  0  0  0  0  0  0  0  0
    2.3237    1.5492    1.1587 O   0  0  0  0  0  0  0  0  0  0  0  0
    0.5148   -0.7668    0.1847 C   0  0  0  0  0  0  0  0  0  0  0  0
    1.1001   -0.9975   -1.2445 N   0  0  0  0  0  0  0  0  0  0  0  0
    2.1507   -2.0914   -1.1276 C   0  0  0  0  0  0  0  0  0  0  0  0
    1.7947    0.2504   -1.7939 C   0  0  0  0  0  0  0  0  0  0  0  0
    0.0289   -1.4280   -2.2239 C   0  0  0  0  0  0  0  0  0  0  0  0
   -4.2483   -0.1388    1.5313 H   0  0  0  0  0  0  0  0  0  0  0  0
   -3.5559   -1.7376    1.9730 H   0  0  0  0  0  0  0  0  0  0  0  0
   -4.5874   -1.5655    0.5348 H   0  0  0  0  0  0  0  0  0  0  0  0
   -0.8098    0.8268   -0.6086 H   0  0  0  0  0  0  0  0  0  0  0  0
    0.1672    1.1166    2.2961 H   0  0  0  0  0  0  0  0  0  0  0  0
   -0.7534    2.2973    1.3790 H   0  0  0  0  0  0  0  0  0  0  0  0
    0.0394   -1.7192    0.4520 H   0  0  0  0  0  0  0  0  0  0  0  0
    1.3728   -0.6617    0.8551 H   0  0  0  0  0  0  0  0  0  0  0  0
    2.9356   -1.7557   -0.4429 H   0  0  0  0  0  0  0  0  0  0  0  0
    1.6687   -2.9956   -0.7437 H   0  0  0  0  0  0  0  0  0  0  0  0
    2.5712   -2.2820   -2.1199 H   0  0  0  0  0  0  0  0  0  0  0  0
    2.5896    0.5445   -1.1092 H   0  0  0  0  0  0  0  0  0  0  0  0
    1.0455    1.0237   -1.9597 H   0  0  0  0  0  0  0  0  0  0  0  0
    2.2395   -0.0143   -2.7595 H   0  0  0  0  0  0  0  0  0  0  0  0
   -0.6614   -0.5981   -2.3863 H   0  0  0  0  0  0  0  0  0  0  0  0
    0.5125   -1.6823   -3.1729 H   0  0  0  0  0  0  0  0  0  0  0  0
   -0.4749   -2.3114   -1.8233 H   0  0  0  0  0  0  0  0  0  0  0  0
  1  2  1  0
  2  3  2  0
  2  4  1  0
  4  5  1  0
  5  6  1  0
  6  7  1  0
  7  8  2  0
  7  9  1  0
  5 10  1  0
 10 11  1  0
 11 12  1  0
 11 13  1  0
 11 14  1  0
  1 15  1  0
  1 16  1  0
  1 17  1  0
  5 18  1  0
  6 19  1  0
  6 20  1  0
 10 21  1  0
 10 22  1  0
 12 23  1  0
 12 24  1  0
 12 25  1  0
 13 26  1  0
 13 27  1  0
 13 28  1  0
 14 29  1  0
 14 30  1  0
 14 31  1  0
M  CHG  2   9  -1  11   1
M  END
>  <cat1>  (45) 
0

$$$$
b_CID_5281616-Galangin
     RDKit          3D

 30 32  0  0  0  0  0  0  0  0999 V2000
   -2.2974    2.1243    3.4354 C   0  0  0  0  0  0  0  0  0  0  0  0
   -2.4729    0.7425    3.4475 C   0  0  0  0  0  0  0  0  0  0  0  0
   -1.8030   -0.0571    2.5175 C   0  0  0  0  0  0  0  0  0  0  0  0
   -0.9433    0.5137    1.5677 C   0  0  0  0  0  0  0  0  0  0  0  0
   -0.7840    1.9085    1.5636 C   0  0  0  0  0  0  0  0  0  0  0  0
   -1.4539    2.7082    2.4933 C   0  0  0  0  0  0  0  0  0  0  0  0
   -0.2463   -0.3092    0.5565 C   0  0  0  0  0  0  0  0  0  0  0  0
    0.4342   -1.4287    0.8558 C   0  0  0  0  0  0  0  0  0  0  0  0
    1.1106   -2.1802   -0.2327 C   0  0  0  0  0  0  0  0  0  0  0  0
    1.7320   -3.1918    0.0767 O   0  0  0  0  0  0  0  0  0  0  0  0
    0.9770   -1.6413   -1.6013 C   0  0  0  0  0  0  0  0  0  0  0  0
    1.5473   -2.2515   -2.7258 C   0  0  0  0  0  0  0  0  0  0  0  0
    1.3825   -1.6875   -3.9931 C   0  0  0  0  0  0  0  0  0  0  0  0
    0.6478   -0.5153   -4.1339 C   0  0  0  0  0  0  0  0  0  0  0  0
    0.0751    0.1042   -3.0304 C   0  0  0  0  0  0  0  0  0  0  0  0
    0.2431   -0.4640   -1.7643 C   0  0  0  0  0  0  0  0  0  0  0  0
   -0.3515    0.2076   -0.7257 O   0  0  0  0  0  0  0  0  0  0  0  0
    0.5121   -0.0013   -5.3890 O   0  0  0  0  0  0  0  0  0  0  0  0
    2.2702   -3.4034   -2.6075 O   0  0  0  0  0  0  0  0  0  0  0  0
    0.5710   -1.9388    2.1352 O   0  0  0  0  0  0  0  0  0  0  0  0
   -2.8173    2.7450    4.1604 H   0  0  0  0  0  0  0  0  0  0  0  0
   -3.1302    0.2832    4.1812 H   0  0  0  0  0  0  0  0  0  0  0  0
   -1.9579   -1.1336    2.5434 H   0  0  0  0  0  0  0  0  0  0  0  0
   -0.1277    2.3839    0.8380 H   0  0  0  0  0  0  0  0  0  0  0  0
   -1.3149    3.7860    2.4820 H   0  0  0  0  0  0  0  0  0  0  0  0
    1.8166   -2.1461   -4.8766 H   0  0  0  0  0  0  0  0  0  0  0  0
   -0.5004    1.0192   -3.1327 H   0  0  0  0  0  0  0  0  0  0  0  0
   -0.0261    0.8073   -5.3474 H   0  0  0  0  0  0  0  0  0  0  0  0
    2.5941   -3.6880   -3.4773 H   0  0  0  0  0  0  0  0  0  0  0  0
    1.1379   -2.7332    2.0215 H   0  0  0  0  0  0  0  0  0  0  0  0
  1  2  2  0
  2  3  1  0
  3  4  2  0
  4  5  1  0
  5  6  2  0
  4  7  1  0
  7  8  2  0
  8  9  1  0
  9 10  2  0
  9 11  1  0
 11 12  2  0
 12 13  1  0
 13 14  2  0
 14 15  1  0
 15 16  2  0
 16 17  1  0
 14 18  1  0
 12 19  1  0
  8 20  1  0
  6  1  1  0
 17  7  1  0
 16 11  1  0
  1 21  1  0
  2 22  1  0
  3 23  1  0
  5 24  1  0
  6 25  1  0
 13 26  1  0
 15 27  1  0
 18 28  1  0
 19 29  1  0
 20 30  1  0
M  END
>  <cat1>  (46) 
1

$$$$
b_CID_5790-Floxuridine
     RDKit          3D

 28 29  0  0  0  0  0  0  0  0999 V2000
   -1.1721    1.0295   -0.8663 C   0  0  0  0  0  0  0  0  0  0  0  0
   -1.5568   -0.3363   -1.3778 C   0  0  0  0  0  0  0  0  0  0  0  0
   -1.9503   -1.0256   -0.0779 C   0  0  0  0  0  0  0  0  0  0  0  0
   -0.9710   -0.5973    0.8806 O   0  0  0  0  0  0  0  0  0  0  0  0
   -0.4926    0.6997    0.4647 C   0  0  0  0  0  0  0  0  0  0  0  0
    0.9675    0.7036    0.3744 N   0  0  0  0  0  0  0  0  0  0  0  0
    1.7044   -0.4679    0.3242 C   0  0  0  0  0  0  0  0  0  0  0  0
    3.0340   -0.4573    0.2348 C   0  0  0  0  0  0  0  0  0  0  0  0
    3.7562    0.8267    0.1847 C   0  0  0  0  0  0  0  0  0  0  0  0
    4.9746    0.9011    0.0801 O   0  0  0  0  0  0  0  0  0  0  0  0
    2.9570    1.9379    0.2545 N   0  0  0  0  0  0  0  0  0  0  0  0
    1.5868    1.9516    0.3286 C   0  0  0  0  0  0  0  0  0  0  0  0
    0.9760    3.0176    0.3358 O   0  0  0  0  0  0  0  0  0  0  0  0
    3.7622   -1.5871    0.1818 F   0  0  0  0  0  0  0  0  0  0  0  0
   -1.9957   -2.5458   -0.2092 C   0  0  0  0  0  0  0  0  0  0  0  0
   -3.0347   -2.9760   -1.0824 O   0  0  0  0  0  0  0  0  0  0  0  0
   -2.6211   -0.3098   -2.3111 O   0  0  0  0  0  0  0  0  0  0  0  0
   -0.5492    1.5867   -1.5727 H   0  0  0  0  0  0  0  0  0  0  0  0
   -2.0740    1.6306   -0.6937 H   0  0  0  0  0  0  0  0  0  0  0  0
   -0.6911   -0.8256   -1.8402 H   0  0  0  0  0  0  0  0  0  0  0  0
   -2.9373   -0.6725    0.2502 H   0  0  0  0  0  0  0  0  0  0  0  0
   -0.7883    1.4276    1.2298 H   0  0  0  0  0  0  0  0  0  0  0  0
    1.1742   -1.4130    0.3668 H   0  0  0  0  0  0  0  0  0  0  0  0
    3.4185    2.8339    0.2153 H   0  0  0  0  0  0  0  0  0  0  0  0
   -1.0418   -2.9343   -0.5822 H   0  0  0  0  0  0  0  0  0  0  0  0
   -2.1588   -3.0059    0.7710 H   0  0  0  0  0  0  0  0  0  0  0  0
   -3.1380   -2.3050   -1.7872 H   0  0  0  0  0  0  0  0  0  0  0  0
   -2.3680    0.2914   -3.0358 H   0  0  0  0  0  0  0  0  0  0  0  0
  1  2  1  0
  2  3  1  0
  3  4  1  0
  4  5  1  0
  5  6  1  0
  6  7  1  0
  7  8  2  0
  8  9  1  0
  9 10  2  0
  9 11  1  0
 11 12  1  0
 12 13  2  0
  8 14  1  0
  3 15  1  0
 15 16  1  0
  2 17  1  0
  5  1  1  0
 12  6  1  0
  1 18  1  0
  1 19  1  0
  2 20  1  0
  3 21  1  0
  5 22  1  0
  7 23  1  0
 11 24  1  0
 15 25  1  0
 15 26  1  0
 16 27  1  0
 17 28  1  0
M  END
>  <cat1>  (47) 
1

$$$$
b_CID_3033-Diclofenac
     RDKit          3D

 30 31  0  0  0  0  0  0  0  0999 V2000
   -0.5291    3.1357    0.8519 C   0  0  0  0  0  0  0  0  0  0  0  0
   -1.5405    2.3790    0.2719 C   0  0  0  0  0  0  0  0  0  0  0  0
   -1.2720    1.0881   -0.1880 C   0  0  0  0  0  0  0  0  0  0  0  0
    0.0102    0.5296   -0.0738 C   0  0  0  0  0  0  0  0  0  0  0  0
    1.0410    1.3114    0.4942 C   0  0  0  0  0  0  0  0  0  0  0  0
    0.7543    2.6059    0.9640 C   0  0  0  0  0  0  0  0  0  0  0  0
    2.4535    0.7899    0.6228 C   0  0  0  0  0  0  0  0  0  0  0  0
    2.6429   -0.0863    1.8307 C   0  0  0  0  0  0  0  0  0  0  0  0
    3.1981    0.2254    2.8720 O   0  0  0  0  0  0  0  0  0  0  0  0
    2.1193   -1.3227    1.6804 O   0  0  0  0  0  0  0  0  0  0  0  0
    0.3027   -0.7863   -0.5284 N   0  0  0  0  0  0  0  0  0  0  0  0
   -0.5629   -1.6511   -1.2538 C   0  0  0  0  0  0  0  0  0  0  0  0
   -1.0864   -2.8094   -0.6426 C   0  0  0  0  0  0  0  0  0  0  0  0
   -1.9831   -3.6468   -1.3148 C   0  0  0  0  0  0  0  0  0  0  0  0
   -2.3804   -3.3433   -2.6141 C   0  0  0  0  0  0  0  0  0  0  0  0
   -1.8767   -2.2059   -3.2416 C   0  0  0  0  0  0  0  0  0  0  0  0
   -0.9783   -1.3660   -2.5707 C   0  0  0  0  0  0  0  0  0  0  0  0
   -0.3606   -0.0101   -3.4541 Cl  0  0  0  0  0  0  0  0  0  0  0  0
   -0.6424   -3.2398    0.9748 Cl  0  0  0  0  0  0  0  0  0  0  0  0
   -0.7378    4.1392    1.2133 H   0  0  0  0  0  0  0  0  0  0  0  0
   -2.5423    2.7895    0.1779 H   0  0  0  0  0  0  0  0  0  0  0  0
   -2.0891    0.5206   -0.6235 H   0  0  0  0  0  0  0  0  0  0  0  0
    1.5360    3.2129    1.4168 H   0  0  0  0  0  0  0  0  0  0  0  0
    2.7585    0.2404   -0.2758 H   0  0  0  0  0  0  0  0  0  0  0  0
    3.1635    1.6232    0.6971 H   0  0  0  0  0  0  0  0  0  0  0  0
    2.2976   -1.7558    2.5435 H   0  0  0  0  0  0  0  0  0  0  0  0
    0.7627   -1.2983    0.2343 H   0  0  0  0  0  0  0  0  0  0  0  0
   -2.3763   -4.5355   -0.8268 H   0  0  0  0  0  0  0  0  0  0  0  0
   -3.0768   -3.9929   -3.1390 H   0  0  0  0  0  0  0  0  0  0  0  0
   -2.1810   -1.9778   -4.2608 H   0  0  0  0  0  0  0  0  0  0  0  0
  1  2  2  0
  2  3  1  0
  3  4  2  0
  4  5  1  0
  5  6  2  0
  5  7  1  0
  7  8  1  0
  8  9  2  0
  8 10  1  0
  4 11  1  0
 11 12  1  0
 12 13  2  0
 13 14  1  0
 14 15  2  0
 15 16  1  0
 16 17  2  0
 17 18  1  0
 13 19  1  0
  6  1  1  0
 17 12  1  0
  1 20  1  0
  2 21  1  0
  3 22  1  0
  6 23  1  0
  7 24  1  0
  7 25  1  0
 10 26  1  0
 11 27  1  0
 14 28  1  0
 15 29  1  0
 16 30  1  0
M  END
>  <cat1>  (48) 
1

$$$$
b_CID_5280961-Genistein
     RDKit          3D

 30 32  0  0  0  0  0  0  0  0999 V2000
   -2.7401    0.2742    0.6210 C   0  0  0  0  0  0  0  0  0  0  0  0
   -3.7855    0.6706    1.4586 C   0  0  0  0  0  0  0  0  0  0  0  0
   -3.5893    0.7128    2.8327 C   0  0  0  0  0  0  0  0  0  0  0  0
   -2.3617    0.3675    3.3865 C   0  0  0  0  0  0  0  0  0  0  0  0
   -1.3166   -0.0309    2.5470 C   0  0  0  0  0  0  0  0  0  0  0  0
   -1.4948   -0.0876    1.1543 C   0  0  0  0  0  0  0  0  0  0  0  0
   -0.3993   -0.5220    0.2663 C   0  0  0  0  0  0  0  0  0  0  0  0
    0.2187   -1.6912    0.4847 C   0  0  0  0  0  0  0  0  0  0  0  0
    1.2361   -2.2310   -0.2565 O   0  0  0  0  0  0  0  0  0  0  0  0
    1.6713   -1.5293   -1.3528 C   0  0  0  0  0  0  0  0  0  0  0  0
    2.7039   -2.1269   -2.0824 C   0  0  0  0  0  0  0  0  0  0  0  0
    3.2005   -1.4833   -3.2076 C   0  0  0  0  0  0  0  0  0  0  0  0
    2.6837   -0.2585   -3.6131 C   0  0  0  0  0  0  0  0  0  0  0  0
    1.6516    0.3348   -2.8805 C   0  0  0  0  0  0  0  0  0  0  0  0
    1.1347   -0.2965   -1.7392 C   0  0  0  0  0  0  0  0  0  0  0  0
    0.0410    0.2809   -0.9140 C   0  0  0  0  0  0  0  0  0  0  0  0
   -0.4833    1.3585   -1.1667 O   0  0  0  0  0  0  0  0  0  0  0  0
    1.1618    1.5371   -3.3042 O   0  0  0  0  0  0  0  0  0  0  0  0
    4.2057   -2.0240   -3.9526 O   0  0  0  0  0  0  0  0  0  0  0  0
   -4.6355    1.1062    3.6129 O   0  0  0  0  0  0  0  0  0  0  0  0
   -2.9051    0.2605   -0.4548 H   0  0  0  0  0  0  0  0  0  0  0  0
   -4.7453    0.9531    1.0357 H   0  0  0  0  0  0  0  0  0  0  0  0
   -2.1970    0.4052    4.4585 H   0  0  0  0  0  0  0  0  0  0  0  0
   -0.3566   -0.2848    2.9910 H   0  0  0  0  0  0  0  0  0  0  0  0
   -0.0337   -2.3650    1.2949 H   0  0  0  0  0  0  0  0  0  0  0  0
    3.1012   -3.0842   -1.7594 H   0  0  0  0  0  0  0  0  0  0  0  0
    3.0935    0.2184   -4.4986 H   0  0  0  0  0  0  0  0  0  0  0  0
    1.6344    1.8354   -4.0972 H   0  0  0  0  0  0  0  0  0  0  0  0
    4.4697   -2.8748   -3.5637 H   0  0  0  0  0  0  0  0  0  0  0  0
   -4.3394    1.1373    4.5370 H   0  0  0  0  0  0  0  0  0  0  0  0
  1  2  2  0
  2  3  1  0
  3  4  2  0
  4  5  1  0
  5  6  2  0
  6  7  1  0
  7  8  2  0
  8  9  1  0
  9 10  1  0
 10 11  2  0
 11 12  1  0
 12 13  2  0
 13 14  1  0
 14 15  2  0
 15 16  1  0
 16 17  2  0
 14 18  1  0
 12 19  1  0
  3 20  1  0
  6  1  1  0
 16  7  1  0
 15 10  1  0
  1 21  1  0
  2 22  1  0
  4 23  1  0
  5 24  1  0
  8 25  1  0
 11 26  1  0
 13 27  1  0
 18 28  1  0
 19 29  1  0
 20 30  1  0
M  END
>  <cat1>  (49) 
1

$$$$
CID_4421-Nalidixic-acid
     RDKit          3D

 29 30  0  0  0  0  0  0  0  0999 V2000
   -2.7382    0.8784   -0.9673 C   0  0  0  0  0  0  0  0  0  0  0  0
   -1.7048    1.3876    0.0280 C   0  0  0  0  0  0  0  0  0  0  0  0
   -0.8140    0.3066    0.4640 N   0  0  0  0  0  0  0  0  0  0  0  0
   -1.0810   -0.5054    1.5512 C   0  0  0  0  0  0  0  0  0  0  0  0
   -0.3260   -1.5327    1.9694 C   0  0  0  0  0  0  0  0  0  0  0  0
    0.9199   -1.8038    1.2126 C   0  0  0  0  0  0  0  0  0  0  0  0
    1.7461   -2.6382    1.5676 O   0  0  0  0  0  0  0  0  0  0  0  0
    1.1746   -0.9987   -0.0052 C   0  0  0  0  0  0  0  0  0  0  0  0
    0.3058    0.0400   -0.3562 C   0  0  0  0  0  0  0  0  0  0  0  0
    0.5298    0.7870   -1.4666 N   0  0  0  0  0  0  0  0  0  0  0  0
    1.6130    0.5162   -2.2367 C   0  0  0  0  0  0  0  0  0  0  0  0
    2.5122   -0.4992   -1.9375 C   0  0  0  0  0  0  0  0  0  0  0  0
    2.2894   -1.2683   -0.8027 C   0  0  0  0  0  0  0  0  0  0  0  0
    1.8190    1.3686   -3.4532 C   0  0  0  0  0  0  0  0  0  0  0  0
   -0.7941   -2.2932    3.1347 C   0  0  0  0  0  0  0  0  0  0  0  0
   -1.5573   -1.8797    3.9930 O   0  0  0  0  0  0  0  0  0  0  0  0
   -0.3562   -3.5598    3.1613 O   0  0  0  0  0  0  0  0  0  0  0  0
   -2.2654    0.4902   -1.8748 H   0  0  0  0  0  0  0  0  0  0  0  0
   -3.4145    1.6885   -1.2575 H   0  0  0  0  0  0  0  0  0  0  0  0
   -3.3395    0.0728   -0.5329 H   0  0  0  0  0  0  0  0  0  0  0  0
   -1.1479    2.2322   -0.3959 H   0  0  0  0  0  0  0  0  0  0  0  0
   -2.2311    1.7990    0.8991 H   0  0  0  0  0  0  0  0  0  0  0  0
   -2.0036   -0.2449    2.0678 H   0  0  0  0  0  0  0  0  0  0  0  0
    3.3717   -0.6916   -2.5718 H   0  0  0  0  0  0  0  0  0  0  0  0
    2.9762   -2.0695   -0.5410 H   0  0  0  0  0  0  0  0  0  0  0  0
    1.8090    0.7489   -4.3552 H   0  0  0  0  0  0  0  0  0  0  0  0
    2.7761    1.8953   -3.3882 H   0  0  0  0  0  0  0  0  0  0  0  0
    1.0240    2.1158   -3.5443 H   0  0  0  0  0  0  0  0  0  0  0  0
   -0.7263   -3.9398    3.9833 H   0  0  0  0  0  0  0  0  0  0  0  0
  1  2  1  0
  2  3  1  0
  3  4  1  0
  4  5  2  0
  5  6  1  0
  6  7  2  0
  6  8  1  0
  8  9  2  0
  9 10  1  0
 10 11  2  0
 11 12  1  0
 12 13  2  0
 11 14  1  0
  5 15  1  0
 15 16  2  0
 15 17  1  0
  9  3  1  0
 13  8  1  0
  1 18  1  0
  1 19  1  0
  1 20  1  0
  2 21  1  0
  2 22  1  0
  4 23  1  0
 12 24  1  0
 13 25  1  0
 14 26  1  0
 14 27  1  0
 14 28  1  0
 17 29  1  0
M  END
>  <cat1>  (50) 
0

$$$$
CID_4831-Pipemidic-acid
     RDKit          3D

 39 41  0  0  0  0  0  0  0  0999 V2000
   -0.5934    2.3750   -1.6099 C   0  0  0  0  0  0  0  0  0  0  0  0
   -1.2240    2.0129   -0.2726 C   0  0  0  0  0  0  0  0  0  0  0  0
   -0.2024    1.6089    0.7002 N   0  0  0  0  0  0  0  0  0  0  0  0
    0.4280    2.4965    1.5573 C   0  0  0  0  0  0  0  0  0  0  0  0
    1.4014    2.1977    2.4351 C   0  0  0  0  0  0  0  0  0  0  0  0
    1.8344    0.7751    2.4724 C   0  0  0  0  0  0  0  0  0  0  0  0
    2.6884    0.3538    3.2433 O   0  0  0  0  0  0  0  0  0  0  0  0
    1.1962   -0.1599    1.5338 C   0  0  0  0  0  0  0  0  0  0  0  0
    1.5568   -1.4810    1.4707 C   0  0  0  0  0  0  0  0  0  0  0  0
    0.9918   -2.3555    0.6154 N   0  0  0  0  0  0  0  0  0  0  0  0
    0.0308   -1.8974   -0.2023 C   0  0  0  0  0  0  0  0  0  0  0  0
   -0.3720   -0.6135   -0.1934 N   0  0  0  0  0  0  0  0  0  0  0  0
    0.2035    0.2533    0.6674 C   0  0  0  0  0  0  0  0  0  0  0  0
   -0.5451   -2.7646   -1.1037 N   0  0  0  0  0  0  0  0  0  0  0  0
   -1.8340   -2.4051   -1.6955 C   0  0  0  0  0  0  0  0  0  0  0  0
   -2.7308   -3.6487   -1.8938 C   0  0  0  0  0  0  0  0  0  0  0  0
   -2.1153   -4.7667   -2.6287 N   0  0  0  0  0  0  0  0  0  0  0  0
   -0.6831   -4.9133   -2.2947 C   0  0  0  0  0  0  0  0  0  0  0  0
   -0.2075   -4.1846   -1.0177 C   0  0  0  0  0  0  0  0  0  0  0  0
    2.0055    3.2300    3.2994 C   0  0  0  0  0  0  0  0  0  0  0  0
    2.9362    3.0945    4.0711 O   0  0  0  0  0  0  0  0  0  0  0  0
    1.4204    4.4395    3.1753 O   0  0  0  0  0  0  0  0  0  0  0  0
    0.1339    3.1857   -1.4952 H   0  0  0  0  0  0  0  0  0  0  0  0
   -1.3634    2.7060   -2.3137 H   0  0  0  0  0  0  0  0  0  0  0  0
   -0.0736    1.5201   -2.0539 H   0  0  0  0  0  0  0  0  0  0  0  0
   -1.7650    2.8887    0.1085 H   0  0  0  0  0  0  0  0  0  0  0  0
   -1.9890    1.2383   -0.4074 H   0  0  0  0  0  0  0  0  0  0  0  0
    0.0534    3.5132    1.4582 H   0  0  0  0  0  0  0  0  0  0  0  0
    2.3289   -1.8937    2.1141 H   0  0  0  0  0  0  0  0  0  0  0  0
   -2.3952   -1.6983   -1.0717 H   0  0  0  0  0  0  0  0  0  0  0  0
   -1.6546   -1.9236   -2.6642 H   0  0  0  0  0  0  0  0  0  0  0  0
   -3.6528   -3.3541   -2.4078 H   0  0  0  0  0  0  0  0  0  0  0  0
   -3.0378   -4.0238   -0.9091 H   0  0  0  0  0  0  0  0  0  0  0  0
   -2.1872   -4.5899   -3.6305 H   0  0  0  0  0  0  0  0  0  0  0  0
   -0.4548   -5.9814   -2.2123 H   0  0  0  0  0  0  0  0  0  0  0  0
   -0.1001   -4.5306   -3.1426 H   0  0  0  0  0  0  0  0  0  0  0  0
   -0.6758   -4.6334   -0.1326 H   0  0  0  0  0  0  0  0  0  0  0  0
    0.8770   -4.3299   -0.9386 H   0  0  0  0  0  0  0  0  0  0  0  0
    1.9284    4.9944    3.8060 H   0  0  0  0  0  0  0  0  0  0  0  0
  1  2  1  0
  2  3  1  0
  3  4  1  0
  4  5  2  0
  5  6  1  0
  6  7  2  0
  6  8  1  0
  8  9  2  0
  9 10  1  0
 10 11  2  0
 11 12  1  0
 12 13  2  0
 11 14  1  0
 14 15  1  0
 15 16  1  0
 16 17  1  0
 17 18  1  0
 18 19  1  0
  5 20  1  0
 20 21  2  0
 20 22  1  0
 13  3  1  0
 13  8  1  0
 19 14  1  0
  1 23  1  0
  1 24  1  0
  1 25  1  0
  2 26  1  0
  2 27  1  0
  4 28  1  0
  9 29  1  0
 15 30  1  0
 15 31  1  0
 16 32  1  0
 16 33  1  0
 17 34  1  0
 18 35  1  0
 18 36  1  0
 19 37  1  0
 19 38  1  0
 22 39  1  0
M  END
>  <cat1>  (51) 
0

$$$$
b_CID_5280445-Luteolin
     RDKit          3D

 31 33  0  0  0  0  0  0  0  0999 V2000
   -1.2928    1.2584    1.3878 C   0  0  0  0  0  0  0  0  0  0  0  0
   -1.9620    1.6594    2.5471 C   0  0  0  0  0  0  0  0  0  0  0  0
   -1.8163    0.9114    3.7038 C   0  0  0  0  0  0  0  0  0  0  0  0
   -1.0183   -0.2287    3.7181 C   0  0  0  0  0  0  0  0  0  0  0  0
   -0.3462   -0.6350    2.5688 C   0  0  0  0  0  0  0  0  0  0  0  0
   -0.4725    0.1152    1.3861 C   0  0  0  0  0  0  0  0  0  0  0  0
    0.2156   -0.2878    0.1445 C   0  0  0  0  0  0  0  0  0  0  0  0
    1.5073   -0.6479    0.1424 C   0  0  0  0  0  0  0  0  0  0  0  0
    2.1368   -1.0302   -1.1294 C   0  0  0  0  0  0  0  0  0  0  0  0
    3.3106   -1.3803   -1.1856 O   0  0  0  0  0  0  0  0  0  0  0  0
    1.2993   -0.9790   -2.3329 C   0  0  0  0  0  0  0  0  0  0  0  0
    1.8016   -1.3200   -3.5933 C   0  0  0  0  0  0  0  0  0  0  0  0
    0.9791   -1.2602   -4.7158 C   0  0  0  0  0  0  0  0  0  0  0  0
   -0.3456   -0.8577   -4.5656 C   0  0  0  0  0  0  0  0  0  0  0  0
   -0.8562   -0.5164   -3.3159 C   0  0  0  0  0  0  0  0  0  0  0  0
   -0.0279   -0.5781   -2.1958 C   0  0  0  0  0  0  0  0  0  0  0  0
   -0.5811   -0.2310   -0.9885 O   0  0  0  0  0  0  0  0  0  0  0  0
   -1.1887   -0.7834   -5.6346 O   0  0  0  0  0  0  0  0  0  0  0  0
    3.0943   -1.7219   -3.7968 O   0  0  0  0  0  0  0  0  0  0  0  0
   -0.9284   -0.9237    4.8931 O   0  0  0  0  0  0  0  0  0  0  0  0
   -2.4700    1.3017    4.8365 O   0  0  0  0  0  0  0  0  0  0  0  0
   -1.4130    1.8518    0.4831 H   0  0  0  0  0  0  0  0  0  0  0  0
   -2.5904    2.5449    2.5448 H   0  0  0  0  0  0  0  0  0  0  0  0
    0.2619   -1.5343    2.5821 H   0  0  0  0  0  0  0  0  0  0  0  0
    2.1347   -0.6674    1.0238 H   0  0  0  0  0  0  0  0  0  0  0  0
    1.3847   -1.5279   -5.6864 H   0  0  0  0  0  0  0  0  0  0  0  0
   -1.8927   -0.2054   -3.2189 H   0  0  0  0  0  0  0  0  0  0  0  0
   -0.7045   -1.0459   -6.4360 H   0  0  0  0  0  0  0  0  0  0  0  0
    3.5583   -1.7169   -2.9288 H   0  0  0  0  0  0  0  0  0  0  0  0
   -0.3596   -1.6996    4.7499 H   0  0  0  0  0  0  0  0  0  0  0  0
   -2.2248    0.6324    5.5059 H   0  0  0  0  0  0  0  0  0  0  0  0
  1  2  2  0
  2  3  1  0
  3  4  2  0
  4  5  1  0
  5  6  2  0
  6  7  1  0
  7  8  2  0
  8  9  1  0
  9 10  2  0
  9 11  1  0
 11 12  2  0
 12 13  1  0
 13 14  2  0
 14 15  1  0
 15 16  2  0
 16 17  1  0
 14 18  1  0
 12 19  1  0
  4 20  1  0
  3 21  1  0
  6  1  1  0
 17  7  1  0
 16 11  1  0
  1 22  1  0
  2 23  1  0
  5 24  1  0
  8 25  1  0
 13 26  1  0
 15 27  1  0
 18 28  1  0
 19 29  1  0
 20 30  1  0
 21 31  1  0
M  END
>  <cat1>  (52) 
1

$$$$
CID_54677470-Meloxicam
     RDKit          3D

 36 38  0  0  0  0  0  0  0  0999 V2000
   -4.4939    4.8345    0.9246 C   0  0  0  0  0  0  0  0  0  0  0  0
   -3.4317    3.8227    1.1489 C   0  0  0  0  0  0  0  0  0  0  0  0
   -2.6047    3.6409    2.2394 C   0  0  0  0  0  0  0  0  0  0  0  0
   -1.7068    2.5970    2.1413 N   0  0  0  0  0  0  0  0  0  0  0  0
   -1.8643    1.9980    0.9907 C   0  0  0  0  0  0  0  0  0  0  0  0
   -3.0677    2.6392   -0.0397 S   0  0  0  0  0  0  0  0  0  0  0  0
   -1.2016    0.9285    0.4645 N   0  0  0  0  0  0  0  0  0  0  0  0
   -0.2470    0.2204    1.1515 C   0  0  0  0  0  0  0  0  0  0  0  0
    0.1123    0.4372    2.3046 O   0  0  0  0  0  0  0  0  0  0  0  0
    0.3963   -0.9011    0.3443 C   0  0  0  0  0  0  0  0  0  0  0  0
   -0.2221   -1.5093   -0.6968 C   0  0  0  0  0  0  0  0  0  0  0  0
    0.3835   -2.6008   -1.4941 C   0  0  0  0  0  0  0  0  0  0  0  0
    0.0158   -2.8412   -2.8272 C   0  0  0  0  0  0  0  0  0  0  0  0
    0.5853   -3.8983   -3.5471 C   0  0  0  0  0  0  0  0  0  0  0  0
    1.5360   -4.7265   -2.9508 C   0  0  0  0  0  0  0  0  0  0  0  0
    1.9269   -4.4956   -1.6353 C   0  0  0  0  0  0  0  0  0  0  0  0
    1.3403   -3.4431   -0.9272 C   0  0  0  0  0  0  0  0  0  0  0  0
    1.8755   -3.0596    0.7027 S   0  0  0  0  0  0  0  0  0  0  0  0
    0.9009   -3.6095    1.6191 O   0  0  0  0  0  0  0  0  0  0  0  0
    3.2802   -3.4025    0.7845 O   0  0  0  0  0  0  0  0  0  0  0  0
    1.7388   -1.3607    0.6712 N   0  0  0  0  0  0  0  0  0  0  0  0
    2.5176   -0.6884    1.7334 C   0  0  0  0  0  0  0  0  0  0  0  0
   -1.5134   -1.1623   -1.0756 O   0  0  0  0  0  0  0  0  0  0  0  0
   -4.5850    5.5037    1.7865 H   0  0  0  0  0  0  0  0  0  0  0  0
   -4.2673    5.4484    0.0467 H   0  0  0  0  0  0  0  0  0  0  0  0
   -5.4647    4.3520    0.7714 H   0  0  0  0  0  0  0  0  0  0  0  0
   -2.6107    4.2434    3.1401 H   0  0  0  0  0  0  0  0  0  0  0  0
   -1.4964    0.6115   -0.4501 H   0  0  0  0  0  0  0  0  0  0  0  0
   -0.6993   -2.1976   -3.3360 H   0  0  0  0  0  0  0  0  0  0  0  0
    0.2939   -4.0694   -4.5815 H   0  0  0  0  0  0  0  0  0  0  0  0
    1.9826   -5.5410   -3.5169 H   0  0  0  0  0  0  0  0  0  0  0  0
    2.6861   -5.1221   -1.1717 H   0  0  0  0  0  0  0  0  0  0  0  0
    2.1374   -0.9383    2.7280 H   0  0  0  0  0  0  0  0  0  0  0  0
    3.5690   -0.9886    1.6760 H   0  0  0  0  0  0  0  0  0  0  0  0
    2.5105    0.3966    1.5890 H   0  0  0  0  0  0  0  0  0  0  0  0
   -1.9492   -1.9686   -1.4162 H   0  0  0  0  0  0  0  0  0  0  0  0
  1  2  1  0
  2  3  2  0
  3  4  1  0
  4  5  2  0
  5  6  1  0
  5  7  1  0
  7  8  1  0
  8  9  2  0
  8 10  1  0
 10 11  2  0
 11 12  1  0
 12 13  2  0
 13 14  1  0
 14 15  2  0
 15 16  1  0
 16 17  2  0
 17 18  1  0
 18 19  2  0
 18 20  2  0
 18 21  1  0
 21 22  1  0
 11 23  1  0
  6  2  1  0
 21 10  1  0
 17 12  1  0
  1 24  1  0
  1 25  1  0
  1 26  1  0
  3 27  1  0
  7 28  1  0
 13 29  1  0
 14 30  1  0
 15 31  1  0
 16 32  1  0
 22 33  1  0
 22 34  1  0
 22 35  1  0
 23 36  1  0
M  END
>  <cat1>  (53) 
0

$$$$
CID_323-Coumarin
     RDKit          3D

 17 18  0  0  0  0  0  0  0  0999 V2000
   -1.1986    1.4957   -1.7292 C   0  0  0  0  0  0  0  0  0  0  0  0
   -0.8823    0.3497   -2.4630 C   0  0  0  0  0  0  0  0  0  0  0  0
   -0.1237   -0.6637   -1.8800 C   0  0  0  0  0  0  0  0  0  0  0  0
    0.3093   -0.5140   -0.5646 C   0  0  0  0  0  0  0  0  0  0  0  0
    0.0031    0.6224    0.1819 C   0  0  0  0  0  0  0  0  0  0  0  0
   -0.7574    1.6334   -0.4089 C   0  0  0  0  0  0  0  0  0  0  0  0
    0.4853    0.7172    1.5498 C   0  0  0  0  0  0  0  0  0  0  0  0
    1.2093   -0.2828    2.0618 C   0  0  0  0  0  0  0  0  0  0  0  0
    1.5447   -1.4931    1.2907 C   0  0  0  0  0  0  0  0  0  0  0  0
    2.2115   -2.3894    1.7953 O   0  0  0  0  0  0  0  0  0  0  0  0
    1.0734   -1.5609   -0.0129 O   0  0  0  0  0  0  0  0  0  0  0  0
   -1.7908    2.2846   -2.1873 H   0  0  0  0  0  0  0  0  0  0  0  0
   -1.2279    0.2480   -3.4889 H   0  0  0  0  0  0  0  0  0  0  0  0
    0.1269   -1.5580   -2.4429 H   0  0  0  0  0  0  0  0  0  0  0  0
   -1.0141    2.5329    0.1452 H   0  0  0  0  0  0  0  0  0  0  0  0
    0.2502    1.5988    2.1354 H   0  0  0  0  0  0  0  0  0  0  0  0
    1.5878   -0.2524    3.0761 H   0  0  0  0  0  0  0  0  0  0  0  0
  1  2  2  0
  2  3  1  0
  3  4  2  0
  4  5  1  0
  5  6  2  0
  5  7  1  0
  7  8  2  0
  8  9  1  0
  9 10  2  0
  9 11  1  0
  6  1  1  0
 11  4  1  0
  1 12  1  0
  2 13  1  0
  3 14  1  0
  6 15  1  0
  7 16  1  0
  8 17  1  0
M  END
>  <cat1>  (54) 
0

$$$$
b_CID_122903-Dehydroacetic-acid
     RDKit          3D

 20 20  0  0  0  0  0  0  0  0999 V2000
   -2.3235    1.5628   -1.8188 C   0  0  0  0  0  0  0  0  0  0  0  0
   -1.2256    0.9041   -1.0437 C   0  0  0  0  0  0  0  0  0  0  0  0
   -0.4518    1.5580   -0.1736 C   0  0  0  0  0  0  0  0  0  0  0  0
    0.5879    0.7960    0.5306 C   0  0  0  0  0  0  0  0  0  0  0  0
    1.4541    1.4129    1.1438 O   0  0  0  0  0  0  0  0  0  0  0  0
    0.4743   -0.6957    0.5208 C   0  0  0  0  0  0  0  0  0  0  0  0
   -0.1171   -1.2418   -0.7406 C   0  0  0  0  0  0  0  0  0  0  0  0
    0.1456   -2.3588   -1.1762 O   0  0  0  0  0  0  0  0  0  0  0  0
   -1.0424   -0.4565   -1.3657 O   0  0  0  0  0  0  0  0  0  0  0  0
    1.7712   -1.3798    0.8815 C   0  0  0  0  0  0  0  0  0  0  0  0
    1.8587   -2.0725    1.8988 O   0  0  0  0  0  0  0  0  0  0  0  0
    2.9634   -1.1826   -0.0235 C   0  0  0  0  0  0  0  0  0  0  0  0
   -2.4161    2.6266   -1.5769 H   0  0  0  0  0  0  0  0  0  0  0  0
   -2.1327    1.4761   -2.8932 H   0  0  0  0  0  0  0  0  0  0  0  0
   -3.2814    1.0816   -1.5974 H   0  0  0  0  0  0  0  0  0  0  0  0
   -0.5409    2.6151    0.0436 H   0  0  0  0  0  0  0  0  0  0  0  0
   -0.2401   -0.9472    1.3182 H   0  0  0  0  0  0  0  0  0  0  0  0
    3.7641   -1.8637    0.2794 H   0  0  0  0  0  0  0  0  0  0  0  0
    3.3287   -0.1566    0.0543 H   0  0  0  0  0  0  0  0  0  0  0  0
    2.6986   -1.4077   -1.0588 H   0  0  0  0  0  0  0  0  0  0  0  0
  1  2  1  0
  2  3  2  0
  3  4  1  0
  4  5  2  0
  4  6  1  0
  6  7  1  0
  7  8  2  0
  7  9  1  0
  6 10  1  0
 10 11  2  0
 10 12  1  0
  9  2  1  0
  1 13  1  0
  1 14  1  0
  1 15  1  0
  3 16  1  0
  6 17  1  0
 12 18  1  0
 12 19  1  0
 12 20  1  0
M  END
>  <cat1>  (55) 
1

$$$$
CID_5560-Trichlormethiazide
     RDKit          3D

 28 29  0  0  0  0  0  0  0  0999 V2000
   -1.2234    0.4654    1.2031 C   0  0  0  0  0  0  0  0  0  0  0  0
   -1.1786   -0.0770   -0.0899 C   0  0  0  0  0  0  0  0  0  0  0  0
    0.0629   -0.5167   -0.5480 C   0  0  0  0  0  0  0  0  0  0  0  0
    1.2341   -0.3792    0.2084 C   0  0  0  0  0  0  0  0  0  0  0  0
    1.1674    0.2021    1.4776 C   0  0  0  0  0  0  0  0  0  0  0  0
   -0.0641    0.6202    1.9821 C   0  0  0  0  0  0  0  0  0  0  0  0
   -0.2664    1.3202    3.5475 Cl  0  0  0  0  0  0  0  0  0  0  0  0
    2.6261    0.3942    2.4481 S   0  0  0  0  0  0  0  0  0  0  0  0
    2.5691   -0.5336    3.5520 O   0  0  0  0  0  0  0  0  0  0  0  0
    2.8990    1.8031    2.6000 O   0  0  0  0  0  0  0  0  0  0  0  0
    3.8707   -0.1773    1.4692 N   0  0  0  0  0  0  0  0  0  0  0  0
    0.1745   -1.3015   -2.1148 S   0  0  0  0  0  0  0  0  0  0  0  0
    0.7300   -0.3542   -3.0490 O   0  0  0  0  0  0  0  0  0  0  0  0
    0.7627   -2.6059   -1.9065 O   0  0  0  0  0  0  0  0  0  0  0  0
   -1.4144   -1.5810   -2.5095 N   0  0  0  0  0  0  0  0  0  0  0  0
   -2.3634   -0.5227   -2.2198 C   0  0  0  0  0  0  0  0  0  0  0  0
   -2.3749   -0.2643   -0.7822 N   0  0  0  0  0  0  0  0  0  0  0  0
   -2.3589    0.7488   -3.1370 C   0  0  0  0  0  0  0  0  0  0  0  0
   -1.2109    2.0358   -2.6862 Cl  0  0  0  0  0  0  0  0  0  0  0  0
   -2.2167    0.3498   -4.8687 Cl  0  0  0  0  0  0  0  0  0  0  0  0
   -2.1794    0.7766    1.6218 H   0  0  0  0  0  0  0  0  0  0  0  0
    2.1762   -0.7349   -0.2038 H   0  0  0  0  0  0  0  0  0  0  0  0
    4.5247    0.5847    1.2781 H   0  0  0  0  0  0  0  0  0  0  0  0
    4.3125   -0.9809    1.9206 H   0  0  0  0  0  0  0  0  0  0  0  0
   -1.7020   -2.5104   -2.2098 H   0  0  0  0  0  0  0  0  0  0  0  0
   -3.3389   -0.9890   -2.4225 H   0  0  0  0  0  0  0  0  0  0  0  0
   -3.1079    0.3821   -0.4934 H   0  0  0  0  0  0  0  0  0  0  0  0
   -3.3391    1.2240   -3.0266 H   0  0  0  0  0  0  0  0  0  0  0  0
  1  2  2  0
  2  3  1  0
  3  4  2  0
  4  5  1  0
  5  6  2  0
  6  7  1  0
  5  8  1  0
  8  9  2  0
  8 10  2  0
  8 11  1  0
  3 12  1  0
 12 13  2  0
 12 14  2  0
 12 15  1  0
 15 16  1  0
 16 17  1  0
 16 18  1  0
 18 19  1  0
 18 20  1  0
  6  1  1  0
 17  2  1  0
  1 21  1  0
  4 22  1  0
 11 23  1  0
 11 24  1  0
 15 25  1  0
 16 26  1  0
 17 27  1  0
 18 28  1  0
M  END
>  <cat1>  (56) 
0

$$$$
CID_3828-Khellin
     RDKit          3D

 31 33  0  0  0  0  0  0  0  0999 V2000
   -0.4788    3.7436    1.3901 C   0  0  0  0  0  0  0  0  0  0  0  0
   -0.6596    2.2824    1.1220 C   0  0  0  0  0  0  0  0  0  0  0  0
   -1.5064    1.5214    1.8230 C   0  0  0  0  0  0  0  0  0  0  0  0
   -1.6265    0.0882    1.5128 C   0  0  0  0  0  0  0  0  0  0  0  0
   -2.3520   -0.6089    2.2096 O   0  0  0  0  0  0  0  0  0  0  0  0
   -0.8287   -0.4176    0.3714 C   0  0  0  0  0  0  0  0  0  0  0  0
   -0.9022   -1.7585   -0.0543 C   0  0  0  0  0  0  0  0  0  0  0  0
   -0.1356   -2.1676   -1.1652 C   0  0  0  0  0  0  0  0  0  0  0  0
    0.7044   -1.2445   -1.7840 C   0  0  0  0  0  0  0  0  0  0  0  0
    0.8250    0.0918   -1.3774 C   0  0  0  0  0  0  0  0  0  0  0  0
    0.0231    0.4824   -0.2825 C   0  0  0  0  0  0  0  0  0  0  0  0
    0.1307    1.8063    0.0960 O   0  0  0  0  0  0  0  0  0  0  0  0
    1.6303    1.0753   -1.9306 O   0  0  0  0  0  0  0  0  0  0  0  0
    2.4320    0.6976   -3.0412 C   0  0  0  0  0  0  0  0  0  0  0  0
    1.3562   -1.8521   -2.8214 O   0  0  0  0  0  0  0  0  0  0  0  0
    0.9314   -3.1382   -2.8798 C   0  0  0  0  0  0  0  0  0  0  0  0
    0.0129   -3.3841   -1.8899 C   0  0  0  0  0  0  0  0  0  0  0  0
   -1.7725   -2.6541    0.5181 O   0  0  0  0  0  0  0  0  0  0  0  0
   -1.1214   -3.3877    1.5564 C   0  0  0  0  0  0  0  0  0  0  0  0
    0.5621    3.9527    1.6572 H   0  0  0  0  0  0  0  0  0  0  0  0
   -1.1139    4.0943    2.2103 H   0  0  0  0  0  0  0  0  0  0  0  0
   -0.7302    4.3252    0.4973 H   0  0  0  0  0  0  0  0  0  0  0  0
   -2.1178    1.8996    2.6323 H   0  0  0  0  0  0  0  0  0  0  0  0
    3.1545   -0.0763   -2.7634 H   0  0  0  0  0  0  0  0  0  0  0  0
    1.8131    0.3912   -3.8904 H   0  0  0  0  0  0  0  0  0  0  0  0
    3.0012    1.5789   -3.3531 H   0  0  0  0  0  0  0  0  0  0  0  0
    1.3643   -3.7397   -3.6673 H   0  0  0  0  0  0  0  0  0  0  0  0
   -0.4946   -4.3203   -1.7041 H   0  0  0  0  0  0  0  0  0  0  0  0
   -0.3962   -4.0914    1.1345 H   0  0  0  0  0  0  0  0  0  0  0  0
   -1.8840   -3.9644    2.0881 H   0  0  0  0  0  0  0  0  0  0  0  0
   -0.6275   -2.7286    2.2788 H   0  0  0  0  0  0  0  0  0  0  0  0
  1  2  1  0
  2  3  2  0
  3  4  1  0
  4  5  2  0
  4  6  1  0
  6  7  2  0
  7  8  1  0
  8  9  2  0
  9 10  1  0
 10 11  2  0
 11 12  1  0
 10 13  1  0
 13 14  1  0
  9 15  1  0
 15 16  1  0
 16 17  2  0
  7 18  1  0
 18 19  1  0
 12  2  1  0
 11  6  1  0
 17  8  1  0
  1 20  1  0
  1 21  1  0
  1 22  1  0
  3 23  1  0
 14 24  1  0
 14 25  1  0
 14 26  1  0
 16 27  1  0
 17 28  1  0
 19 29  1  0
 19 30  1  0
 19 31  1  0
M  END
>  <cat1>  (57) 
0

$$$$
CID_3826-Ketorolac
     RDKit          3D

 32 34  0  0  0  0  0  0  0  0999 V2000
   -3.1887    0.7914    1.0411 C   0  0  0  0  0  0  0  0  0  0  0  0
   -2.5294   -0.1523    0.0179 C   0  0  0  0  0  0  0  0  0  0  0  0
   -1.1231   -0.0471    0.3723 N   0  0  0  0  0  0  0  0  0  0  0  0
   -0.9191    0.5098    1.5999 C   0  0  0  0  0  0  0  0  0  0  0  0
    0.4278    0.5620    1.8255 C   0  0  0  0  0  0  0  0  0  0  0  0
    1.0370   -0.0013    0.6631 C   0  0  0  0  0  0  0  0  0  0  0  0
    0.0435   -0.3611   -0.2503 C   0  0  0  0  0  0  0  0  0  0  0  0
    0.1212   -0.9794   -1.5623 C   0  0  0  0  0  0  0  0  0  0  0  0
   -0.8488   -1.5031   -2.1082 O   0  0  0  0  0  0  0  0  0  0  0  0
    1.4129   -1.0045   -2.2984 C   0  0  0  0  0  0  0  0  0  0  0  0
    2.2380    0.1249   -2.3692 C   0  0  0  0  0  0  0  0  0  0  0  0
    3.4344    0.0691   -3.0868 C   0  0  0  0  0  0  0  0  0  0  0  0
    3.8013   -1.1060   -3.7438 C   0  0  0  0  0  0  0  0  0  0  0  0
    2.9708   -2.2257   -3.6938 C   0  0  0  0  0  0  0  0  0  0  0  0
    1.7739   -2.1747   -2.9779 C   0  0  0  0  0  0  0  0  0  0  0  0
   -2.2107    0.8538    2.2483 C   0  0  0  0  0  0  0  0  0  0  0  0
   -2.5632   -0.1694    3.3088 C   0  0  0  0  0  0  0  0  0  0  0  0
   -3.3648   -1.0852    3.2100 O   0  0  0  0  0  0  0  0  0  0  0  0
   -1.8864    0.0159    4.4624 O   0  0  0  0  0  0  0  0  0  0  0  0
   -4.2029    0.4728    1.3010 H   0  0  0  0  0  0  0  0  0  0  0  0
   -3.2650    1.7930    0.5965 H   0  0  0  0  0  0  0  0  0  0  0  0
   -2.8291   -1.1950    0.1563 H   0  0  0  0  0  0  0  0  0  0  0  0
   -2.6785    0.1779   -1.0124 H   0  0  0  0  0  0  0  0  0  0  0  0
    0.9255    0.9364    2.7108 H   0  0  0  0  0  0  0  0  0  0  0  0
    2.1022   -0.1382    0.5226 H   0  0  0  0  0  0  0  0  0  0  0  0
    1.9519    1.0551   -1.8849 H   0  0  0  0  0  0  0  0  0  0  0  0
    4.0770    0.9445   -3.1415 H   0  0  0  0  0  0  0  0  0  0  0  0
    4.7319   -1.1461   -4.3051 H   0  0  0  0  0  0  0  0  0  0  0  0
    3.2520   -3.1364   -4.2168 H   0  0  0  0  0  0  0  0  0  0  0  0
    1.1228   -3.0460   -2.9499 H   0  0  0  0  0  0  0  0  0  0  0  0
   -2.2235    1.8547    2.6905 H   0  0  0  0  0  0  0  0  0  0  0  0
   -2.1785   -0.7280    5.0291 H   0  0  0  0  0  0  0  0  0  0  0  0
  1  2  1  0
  2  3  1  0
  3  4  1  0
  4  5  2  0
  5  6  1  0
  6  7  2  0
  7  8  1  0
  8  9  2  0
  8 10  1  0
 10 11  2  0
 11 12  1  0
 12 13  2  0
 13 14  1  0
 14 15  2  0
  4 16  1  0
 16 17  1  0
 17 18  2  0
 17 19  1  0
 16  1  1  0
  7  3  1  0
 15 10  1  0
  1 20  1  0
  1 21  1  0
  2 22  1  0
  2 23  1  0
  5 24  1  0
  6 25  1  0
 11 26  1  0
 12 27  1  0
 13 28  1  0
 14 29  1  0
 15 30  1  0
 16 31  1  0
 19 32  1  0
M  END
>  <cat1>  (58) 
0

$$$$
CID_3371-Flufenamic-acid
     RDKit          3D

 30 31  0  0  0  0  0  0  0  0999 V2000
   -1.7926    1.2931    2.9708 C   0  0  0  0  0  0  0  0  0  0  0  0
   -2.3602    1.0048    1.7353 C   0  0  0  0  0  0  0  0  0  0  0  0
   -1.5423    0.7657    0.6279 C   0  0  0  0  0  0  0  0  0  0  0  0
   -0.1410    0.8035    0.7276 C   0  0  0  0  0  0  0  0  0  0  0  0
    0.4242    1.1161    1.9867 C   0  0  0  0  0  0  0  0  0  0  0  0
   -0.4057    1.3536    3.0975 C   0  0  0  0  0  0  0  0  0  0  0  0
    1.9018    1.2065    2.1367 C   0  0  0  0  0  0  0  0  0  0  0  0
    2.7146    1.1686    1.2284 O   0  0  0  0  0  0  0  0  0  0  0  0
    2.3018    1.3388    3.4147 O   0  0  0  0  0  0  0  0  0  0  0  0
    0.6679    0.5310   -0.4002 N   0  0  0  0  0  0  0  0  0  0  0  0
    0.5151   -0.3752   -1.4671 C   0  0  0  0  0  0  0  0  0  0  0  0
    1.2934   -0.1854   -2.6175 C   0  0  0  0  0  0  0  0  0  0  0  0
    1.1655   -1.0256   -3.7253 C   0  0  0  0  0  0  0  0  0  0  0  0
    0.2452   -2.0703   -3.7028 C   0  0  0  0  0  0  0  0  0  0  0  0
   -0.5573   -2.2777   -2.5732 C   0  0  0  0  0  0  0  0  0  0  0  0
   -0.4088   -1.4256   -1.4631 C   0  0  0  0  0  0  0  0  0  0  0  0
   -1.5409   -3.4186   -2.5217 C   0  0  0  0  0  0  0  0  0  0  0  0
   -1.9264   -3.8542   -3.7543 F   0  0  0  0  0  0  0  0  0  0  0  0
   -2.6929   -3.0986   -1.8674 F   0  0  0  0  0  0  0  0  0  0  0  0
   -1.0382   -4.5099   -1.8812 F   0  0  0  0  0  0  0  0  0  0  0  0
   -2.4277    1.4802    3.8332 H   0  0  0  0  0  0  0  0  0  0  0  0
   -3.4416    0.9713    1.6259 H   0  0  0  0  0  0  0  0  0  0  0  0
   -2.0157    0.5759   -0.3329 H   0  0  0  0  0  0  0  0  0  0  0  0
    0.0209    1.5923    4.0690 H   0  0  0  0  0  0  0  0  0  0  0  0
    3.2796    1.3759    3.3579 H   0  0  0  0  0  0  0  0  0  0  0  0
    1.6496    0.7923   -0.2568 H   0  0  0  0  0  0  0  0  0  0  0  0
    2.0078    0.6343   -2.6589 H   0  0  0  0  0  0  0  0  0  0  0  0
    1.7829   -0.8600   -4.6048 H   0  0  0  0  0  0  0  0  0  0  0  0
    0.1547   -2.7222   -4.5703 H   0  0  0  0  0  0  0  0  0  0  0  0
   -1.0090   -1.6180   -0.5762 H   0  0  0  0  0  0  0  0  0  0  0  0
  1  2  2  0
  2  3  1  0
  3  4  2  0
  4  5  1  0
  5  6  2  0
  5  7  1  0
  7  8  2  0
  7  9  1  0
  4 10  1  0
 10 11  1  0
 11 12  2  0
 12 13  1  0
 13 14  2  0
 14 15  1  0
 15 16  2  0
 15 17  1  0
 17 18  1  0
 17 19  1  0
 17 20  1  0
  6  1  1  0
 16 11  1  0
  1 21  1  0
  2 22  1  0
  3 23  1  0
  6 24  1  0
  9 25  1  0
 10 26  1  0
 12 27  1  0
 13 28  1  0
 14 29  1  0
 16 30  1  0
M  END
>  <cat1>  (59) 
0

$$$$
CID_60825-Lamivudine
     RDKit          3D

 26 27  0  0  0  0  0  0  0  0999 V2000
   -1.5128    1.5917   -0.3912 C   0  0  0  0  0  0  0  0  0  0  0  0
   -1.3996    0.0693   -0.1937 C   0  0  0  0  0  0  0  0  0  0  0  0
   -1.2818   -0.2914    1.2000 O   0  0  0  0  0  0  0  0  0  0  0  0
   -1.2517    0.8786    2.0335 C   0  0  0  0  0  0  0  0  0  0  0  0
   -0.7109    2.2848    1.0573 S   0  0  0  0  0  0  0  0  0  0  0  0
   -0.3347    0.6020    3.2288 C   0  0  0  0  0  0  0  0  0  0  0  0
   -0.8086   -0.5328    3.9625 O   0  0  0  0  0  0  0  0  0  0  0  0
   -0.3069   -0.5245   -0.9667 N   0  0  0  0  0  0  0  0  0  0  0  0
    0.9079   -0.8410   -0.4021 C   0  0  0  0  0  0  0  0  0  0  0  0
    1.9014   -1.3350   -1.1385 C   0  0  0  0  0  0  0  0  0  0  0  0
    1.6136   -1.5108   -2.5744 C   0  0  0  0  0  0  0  0  0  0  0  0
    0.4810   -1.1931   -3.1171 N   0  0  0  0  0  0  0  0  0  0  0  0
   -0.5215   -0.6607   -2.3438 C   0  0  0  0  0  0  0  0  0  0  0  0
   -1.5859   -0.3059   -2.8485 O   0  0  0  0  0  0  0  0  0  0  0  0
    2.5707   -2.0367   -3.3972 N   0  0  0  0  0  0  0  0  0  0  0  0
   -1.0678    1.9570   -1.3204 H   0  0  0  0  0  0  0  0  0  0  0  0
   -2.5643    1.8961   -0.3664 H   0  0  0  0  0  0  0  0  0  0  0  0
   -2.3292   -0.3948   -0.5465 H   0  0  0  0  0  0  0  0  0  0  0  0
   -2.2760    1.0448    2.3854 H   0  0  0  0  0  0  0  0  0  0  0  0
   -0.3011    1.4537    3.9152 H   0  0  0  0  0  0  0  0  0  0  0  0
    0.6848    0.3663    2.9060 H   0  0  0  0  0  0  0  0  0  0  0  0
   -0.9879   -1.2270    3.2992 H   0  0  0  0  0  0  0  0  0  0  0  0
    1.0368   -0.6756    0.6611 H   0  0  0  0  0  0  0  0  0  0  0  0
    2.8726   -1.5887   -0.7402 H   0  0  0  0  0  0  0  0  0  0  0  0
    3.1798   -2.7409   -2.9998 H   0  0  0  0  0  0  0  0  0  0  0  0
    2.1866   -2.3093   -4.2976 H   0  0  0  0  0  0  0  0  0  0  0  0
  1  2  1  0
  2  3  1  0
  3  4  1  0
  4  5  1  0
  4  6  1  0
  6  7  1  0
  2  8  1  0
  8  9  1  0
  9 10  2  0
 10 11  1  0
 11 12  2  0
 12 13  1  0
 13 14  2  0
 11 15  1  0
  5  1  1  0
 13  8  1  0
  1 16  1  0
  1 17  1  0
  2 18  1  0
  4 19  1  0
  6 20  1  0
  6 21  1  0
  7 22  1  0
  9 23  1  0
 10 24  1  0
 15 25  1  0
 15 26  1  0
M  END
>  <cat1>  (60) 
0

$$$$
CID_54676038-Dicumarol
     RDKit          3D

 37 40  0  0  0  0  0  0  0  0999 V2000
    3.7974    2.5810    2.5571 C   0  0  0  0  0  0  0  0  0  0  0  0
    3.0728    3.7542    2.3463 C   0  0  0  0  0  0  0  0  0  0  0  0
    2.0338    3.7689    1.4192 C   0  0  0  0  0  0  0  0  0  0  0  0
    1.7340    2.6036    0.7135 C   0  0  0  0  0  0  0  0  0  0  0  0
    2.4410    1.4211    0.9056 C   0  0  0  0  0  0  0  0  0  0  0  0
    3.4831    1.4209    1.8406 C   0  0  0  0  0  0  0  0  0  0  0  0
    2.0632    0.2424    0.1260 C   0  0  0  0  0  0  0  0  0  0  0  0
    1.0622    0.3061   -0.7689 C   0  0  0  0  0  0  0  0  0  0  0  0
    0.3065    1.5698   -0.9549 C   0  0  0  0  0  0  0  0  0  0  0  0
   -0.6310    1.6218   -1.7501 O   0  0  0  0  0  0  0  0  0  0  0  0
    0.6764    2.6726   -0.2073 O   0  0  0  0  0  0  0  0  0  0  0  0
    0.6596   -0.8081   -1.7038 C   0  0  0  0  0  0  0  0  0  0  0  0
   -0.4992   -1.6276   -1.1906 C   0  0  0  0  0  0  0  0  0  0  0  0
   -1.7857   -1.4526   -1.5386 C   0  0  0  0  0  0  0  0  0  0  0  0
   -2.8170   -2.3767   -1.0668 C   0  0  0  0  0  0  0  0  0  0  0  0
   -4.1697   -2.2554   -1.4069 C   0  0  0  0  0  0  0  0  0  0  0  0
   -5.1106   -3.1712   -0.9234 C   0  0  0  0  0  0  0  0  0  0  0  0
   -4.7089   -4.2185   -0.0941 C   0  0  0  0  0  0  0  0  0  0  0  0
   -3.3666   -4.3514    0.2522 C   0  0  0  0  0  0  0  0  0  0  0  0
   -2.4419   -3.4297   -0.2389 C   0  0  0  0  0  0  0  0  0  0  0  0
   -1.1026   -3.6085    0.1422 O   0  0  0  0  0  0  0  0  0  0  0  0
   -0.1137   -2.7470   -0.2957 C   0  0  0  0  0  0  0  0  0  0  0  0
    1.0584   -2.8905    0.0503 O   0  0  0  0  0  0  0  0  0  0  0  0
   -2.2399   -0.4352   -2.3513 O   0  0  0  0  0  0  0  0  0  0  0  0
    2.8101   -0.8892    0.3779 O   0  0  0  0  0  0  0  0  0  0  0  0
    4.6098    2.5655    3.2798 H   0  0  0  0  0  0  0  0  0  0  0  0
    3.3191    4.6540    2.9043 H   0  0  0  0  0  0  0  0  0  0  0  0
    1.4637    4.6774    1.2482 H   0  0  0  0  0  0  0  0  0  0  0  0
    4.0614    0.5166    2.0192 H   0  0  0  0  0  0  0  0  0  0  0  0
    1.5189   -1.4599   -1.9115 H   0  0  0  0  0  0  0  0  0  0  0  0
    0.4272   -0.4007   -2.6970 H   0  0  0  0  0  0  0  0  0  0  0  0
   -4.5037   -1.4463   -2.0535 H   0  0  0  0  0  0  0  0  0  0  0  0
   -6.1577   -3.0642   -1.1965 H   0  0  0  0  0  0  0  0  0  0  0  0
   -5.4419   -4.9286    0.2802 H   0  0  0  0  0  0  0  0  0  0  0  0
   -3.0442   -5.1634    0.8974 H   0  0  0  0  0  0  0  0  0  0  0  0
   -1.6470    0.3458   -2.2900 H   0  0  0  0  0  0  0  0  0  0  0  0
    2.2882   -1.6978    0.1807 H   0  0  0  0  0  0  0  0  0  0  0  0
  1  2  2  0
  2  3  1  0
  3  4  2  0
  4  5  1  0
  5  6  2  0
  5  7  1  0
  7  8  2  0
  8  9  1  0
  9 10  2  0
  9 11  1  0
  8 12  1  0
 12 13  1  0
 13 14  2  0
 14 15  1  0
 15 16  2  0
 16 17  1  0
 17 18  2  0
 18 19  1  0
 19 20  2  0
 20 21  1  0
 21 22  1  0
 22 23  2  0
 14 24  1  0
  7 25  1  0
  6  1  1  0
 11  4  1  0
 22 13  1  0
 20 15  1  0
  1 26  1  0
  2 27  1  0
  3 28  1  0
  6 29  1  0
 12 30  1  0
 12 31  1  0
 16 32  1  0
 17 33  1  0
 18 34  1  0
 19 35  1  0
 24 36  1  0
 25 37  1  0
M  END
>  <cat1>  (61) 
0

$$$$
CID_5578-Trimethoprim
     RDKit          3D

 39 40  0  0  0  0  0  0  0  0999 V2000
   -1.9410    2.6946    0.2870 C   0  0  0  0  0  0  0  0  0  0  0  0
   -0.5234    2.6132    0.3326 O   0  0  0  0  0  0  0  0  0  0  0  0
    0.0370    1.3806    0.5450 C   0  0  0  0  0  0  0  0  0  0  0  0
   -0.6804    0.1915    0.6972 C   0  0  0  0  0  0  0  0  0  0  0  0
   -0.0153   -1.0305    0.9032 C   0  0  0  0  0  0  0  0  0  0  0  0
    1.3879   -1.0442    0.9891 C   0  0  0  0  0  0  0  0  0  0  0  0
    2.1241    0.1347    0.8478 C   0  0  0  0  0  0  0  0  0  0  0  0
    1.4399    1.3370    0.6040 C   0  0  0  0  0  0  0  0  0  0  0  0
    2.1575    2.5093    0.5013 O   0  0  0  0  0  0  0  0  0  0  0  0
    2.4812    2.7595   -0.8652 C   0  0  0  0  0  0  0  0  0  0  0  0
    3.4912    0.2140    0.9058 O   0  0  0  0  0  0  0  0  0  0  0  0
    4.1944   -0.9234    1.3855 C   0  0  0  0  0  0  0  0  0  0  0  0
   -0.7937   -2.3197    1.0718 C   0  0  0  0  0  0  0  0  0  0  0  0
   -1.7924   -2.6071   -0.0132 C   0  0  0  0  0  0  0  0  0  0  0  0
   -3.1455   -2.6235    0.2663 C   0  0  0  0  0  0  0  0  0  0  0  0
   -4.1005   -2.8761   -0.6438 N   0  0  0  0  0  0  0  0  0  0  0  0
   -3.6755   -3.1474   -1.8771 C   0  0  0  0  0  0  0  0  0  0  0  0
   -2.3989   -3.1420   -2.2604 N   0  0  0  0  0  0  0  0  0  0  0  0
   -1.4679   -2.8793   -1.3326 C   0  0  0  0  0  0  0  0  0  0  0  0
   -0.1413   -2.8846   -1.7785 N   0  0  0  0  0  0  0  0  0  0  0  0
   -4.6300   -3.4040   -2.8393 N   0  0  0  0  0  0  0  0  0  0  0  0
   -2.3856    2.3826    1.2378 H   0  0  0  0  0  0  0  0  0  0  0  0
   -2.2107    3.7421    0.1220 H   0  0  0  0  0  0  0  0  0  0  0  0
   -2.3428    2.1123   -0.5487 H   0  0  0  0  0  0  0  0  0  0  0  0
   -1.7653    0.1925    0.6563 H   0  0  0  0  0  0  0  0  0  0  0  0
    1.8897   -1.9906    1.1654 H   0  0  0  0  0  0  0  0  0  0  0  0
    1.5793    2.8921   -1.4725 H   0  0  0  0  0  0  0  0  0  0  0  0
    3.0556    3.6897   -0.9077 H   0  0  0  0  0  0  0  0  0  0  0  0
    3.1034    1.9596   -1.2814 H   0  0  0  0  0  0  0  0  0  0  0  0
    3.8382   -1.2246    2.3763 H   0  0  0  0  0  0  0  0  0  0  0  0
    5.2495   -0.6492    1.4802 H   0  0  0  0  0  0  0  0  0  0  0  0
    4.1292   -1.7519    0.6730 H   0  0  0  0  0  0  0  0  0  0  0  0
   -1.2913   -2.2781    2.0499 H   0  0  0  0  0  0  0  0  0  0  0  0
   -0.1083   -3.1753    1.1336 H   0  0  0  0  0  0  0  0  0  0  0  0
   -3.5220   -2.4252    1.2665 H   0  0  0  0  0  0  0  0  0  0  0  0
    0.2762   -1.9681   -1.6389 H   0  0  0  0  0  0  0  0  0  0  0  0
    0.4044   -3.5693   -1.2676 H   0  0  0  0  0  0  0  0  0  0  0  0
   -4.2470   -3.1930   -3.7506 H   0  0  0  0  0  0  0  0  0  0  0  0
   -5.5014   -2.9634   -2.5836 H   0  0  0  0  0  0  0  0  0  0  0  0
  1  2  1  0
  2  3  1  0
  3  4  2  0
  4  5  1  0
  5  6  2  0
  6  7  1  0
  7  8  2  0
  8  9  1  0
  9 10  1  0
  7 11  1  0
 11 12  1  0
  5 13  1  0
 13 14  1  0
 14 15  2  0
 15 16  1  0
 16 17  2  0
 17 18  1  0
 18 19  2  0
 19 20  1  0
 17 21  1  0
  8  3  1  0
 19 14  1  0
  1 22  1  0
  1 23  1  0
  1 24  1  0
  4 25  1  0
  6 26  1  0
 10 27  1  0
 10 28  1  0
 10 29  1  0
 12 30  1  0
 12 31  1  0
 12 32  1  0
 13 33  1  0
 13 34  1  0
 15 35  1  0
 20 36  1  0
 20 37  1  0
 21 38  1  0
 21 39  1  0
M  END
>  <cat1>  (62) 
0

$$$$
b_CID_4044-Mefenamic-acid
     RDKit          3D

 33 34  0  0  0  0  0  0  0  0999 V2000
   -1.9207    2.6768    2.3305 C   0  0  0  0  0  0  0  0  0  0  0  0
   -1.2552    1.3373    2.1615 C   0  0  0  0  0  0  0  0  0  0  0  0
   -1.2833    0.6434    0.9286 C   0  0  0  0  0  0  0  0  0  0  0  0
   -0.6255   -0.6026    0.8224 C   0  0  0  0  0  0  0  0  0  0  0  0
    0.0224   -1.1476    1.9403 C   0  0  0  0  0  0  0  0  0  0  0  0
    0.0206   -0.4760    3.1587 C   0  0  0  0  0  0  0  0  0  0  0  0
   -0.6138    0.7583    3.2678 C   0  0  0  0  0  0  0  0  0  0  0  0
   -0.5478   -1.2911   -0.4147 N   0  0  0  0  0  0  0  0  0  0  0  0
    0.5237   -1.1756   -1.3510 C   0  0  0  0  0  0  0  0  0  0  0  0
    1.3179   -0.0150   -1.3882 C   0  0  0  0  0  0  0  0  0  0  0  0
    2.3056    0.1624   -2.3614 C   0  0  0  0  0  0  0  0  0  0  0  0
    2.5063   -0.8076   -3.3364 C   0  0  0  0  0  0  0  0  0  0  0  0
    1.7188   -1.9571   -3.3373 C   0  0  0  0  0  0  0  0  0  0  0  0
    0.7305   -2.1491   -2.3548 C   0  0  0  0  0  0  0  0  0  0  0  0
   -0.0406   -3.4155   -2.4491 C   0  0  0  0  0  0  0  0  0  0  0  0
   -0.1186   -4.1305   -3.4320 O   0  0  0  0  0  0  0  0  0  0  0  0
   -0.6312   -3.7771   -1.2917 O   0  0  0  0  0  0  0  0  0  0  0  0
   -1.9719    1.2450   -0.2715 C   0  0  0  0  0  0  0  0  0  0  0  0
   -1.6472    3.1430    3.2833 H   0  0  0  0  0  0  0  0  0  0  0  0
   -1.6103    3.3644    1.5372 H   0  0  0  0  0  0  0  0  0  0  0  0
   -3.0090    2.5623    2.3123 H   0  0  0  0  0  0  0  0  0  0  0  0
    0.5433   -2.0980    1.8581 H   0  0  0  0  0  0  0  0  0  0  0  0
    0.5231   -0.9085    4.0195 H   0  0  0  0  0  0  0  0  0  0  0  0
   -0.5991    1.2736    4.2261 H   0  0  0  0  0  0  0  0  0  0  0  0
   -0.7277   -2.2918   -0.2707 H   0  0  0  0  0  0  0  0  0  0  0  0
    1.1737    0.7737   -0.6536 H   0  0  0  0  0  0  0  0  0  0  0  0
    2.9085    1.0673   -2.3594 H   0  0  0  0  0  0  0  0  0  0  0  0
    3.2687   -0.6676   -4.0985 H   0  0  0  0  0  0  0  0  0  0  0  0
    1.8770   -2.7084   -4.1092 H   0  0  0  0  0  0  0  0  0  0  0  0
   -1.0642   -4.6280   -1.5228 H   0  0  0  0  0  0  0  0  0  0  0  0
   -2.2570    0.4867   -1.0072 H   0  0  0  0  0  0  0  0  0  0  0  0
   -1.3116    1.9713   -0.7553 H   0  0  0  0  0  0  0  0  0  0  0  0
   -2.9022    1.7441    0.0175 H   0  0  0  0  0  0  0  0  0  0  0  0
  1  2  1  0
  2  3  2  0
  3  4  1  0
  4  5  2  0
  5  6  1  0
  6  7  2  0
  4  8  1  0
  8  9  1  0
  9 10  2  0
 10 11  1  0
 11 12  2  0
 12 13  1  0
 13 14  2  0
 14 15  1  0
 15 16  2  0
 15 17  1  0
  3 18  1  0
  7  2  1  0
 14  9  1  0
  1 19  1  0
  1 20  1  0
  1 21  1  0
  5 22  1  0
  6 23  1  0
  7 24  1  0
  8 25  1  0
 10 26  1  0
 11 27  1  0
 12 28  1  0
 13 29  1  0
 17 30  1  0
 18 31  1  0
 18 32  1  0
 18 33  1  0
M  END
>  <cat1>  (63) 
1

$$$$
